C6H12O7
  MOLSOFT 06181908472D

 13 12  0  0  1  0  0  0  0  0999 V2000
    1.4000    0.0000    0.0000 O   0  0  0
    2.1000    1.2124    0.0000 C   0  0  0
    3.5000    1.2124    0.0000 C   0  0  2
    4.2000    0.0000    0.0000 O   0  0  0
    4.2000    2.4249    0.0000 C   0  0  2
    3.5000    3.6373    0.0000 O   0  0  0
    5.6000    2.4249    0.0000 C   0  0  1
    6.3000    1.2124    0.0000 O   0  0  0
    6.3000    3.6373    0.0000 C   0  0  2
    5.6000    4.8497    0.0000 O   0  0  0
    7.7000    3.6373    0.0000 C   0  0  0
    8.4000    2.4249    0.0000 O   0  0  0
    8.4000    4.8497    0.0000 O   0  0  0
  1  2  1
  2  3  1
  3  4  1  1
  3  5  1
  5  6  1  6
  5  7  1
  7  8  1  6
  7  9  1
  9 10  1  6
  9 11  1
 11 12  2
 11 13  1
M  END
> <ZINC_ID>
2020485

> <Docking_Score>
-30.295

> <Vendor>
Aksci

$$$$
C4H7O5
  MOLSOFT 06181908472D

  9  8  0  0  1  0  0  0  0  0999 V2000
    5.6000    2.4249    0.0000 C   0  0  0
    4.2000    2.4249    0.0000 C   0  0  2
    3.5000    1.2124    0.0000 C   0  0  2
    2.1000    1.2124    0.0000 C   0  0  0
    1.4000    0.0000    0.0000 O   0  0  0
    1.4000    2.4249    0.0000 O   0  5  0
    4.2000    0.0000    0.0000 O   0  0  0
    3.5000    3.6373    0.0000 O   0  0  0
    6.3000    3.6373    0.0000 O   0  0  0
  4  5  2
  4  6  1
  3  4  1
  3  7  1  1
  2  3  1
  2  8  1  6
  1  2  1
  1  9  1
M  CHG  1   6  -1
M  END
> <ZINC_ID>
901063

> <Docking_Score>
-29.62

> <Vendor>
Combiblocks

$$$$
C12H22O11
  MOLSOFT 06181908472D

 23 24  0  0  1  0  0  0  0  0999 V2000
   -1.4000    0.0000    0.0000 C   0  0  0
    0.0000    0.0000    0.0000 C   0  0  2
    0.7000    1.2124    0.0000 C   0  0  2
    2.1000    1.2124    0.0000 C   0  0  1
    2.8000   -0.0000    0.0000 C   0  0  1
    2.1000   -1.2124    0.0000 C   0  0  1
    0.7000   -1.2124    0.0000 O   0  0  0
    2.8000   -2.4249    0.0000 O   0  0  0
    2.1000   -3.6373    0.0000 C   0  0  2
    2.8000   -4.8497    0.0000 C   0  0  1
    2.1000   -6.0622    0.0000 O   0  0  0
    0.7000   -6.0622    0.0000 C   0  0  2
   -0.0000   -4.8497    0.0000 C   0  0  1
    0.7000   -3.6373    0.0000 C   0  0  1
   -0.0000   -2.4249    0.0000 O   0  0  0
   -1.4000   -4.8497    0.0000 O   0  0  0
    0.0000   -7.2746    0.0000 O   0  0  0
    4.2000   -4.8497    0.0000 C   0  0  0
    4.9000   -3.6373    0.0000 O   0  0  0
    4.2000   -0.0000    0.0000 O   0  0  0
    2.8000    2.4249    0.0000 O   0  0  0
   -0.0000    2.4249    0.0000 O   0  0  0
   -2.1000   -1.2124    0.0000 O   0  0  0
  2  3  1
  7  2  1
  6  7  1
  6  8  1  6
  9  8  1  6
  9 10  1
 11 12  1
 14  9  1
 14 15  1  1
 13 14  1
 13 16  1  6
 12 13  1
 12 17  1  1
 10 11  1
 10 18  1  6
 18 19  1
  5  6  1
  5 20  1  6
  4  5  1
  4 21  1  6
  3  4  1
  3 22  1  1
  2  1  1  6
  1 23  1
M  END
> <ZINC_ID>
12404989

> <Docking_Score>
-29.353

> <Vendor>
ACROS

$$$$
C5H9NO5
  MOLSOFT 06181908472D

 11 10  0  0  1  0  0  0  0  0999 V2000
    1.4000    0.0000    0.0000 N   0  0  0
    2.1000    1.2124    0.0000 C   0  0  1
    3.5000    1.2124    0.0000 C   0  0  0
    4.2000    2.4249    0.0000 C   0  0  1
    3.5000    3.6373    0.0000 O   0  0  0
    5.6000    2.4249    0.0000 C   0  0  0
    6.3000    1.2124    0.0000 O   0  0  0
    6.3000    3.6373    0.0000 O   0  0  0
    1.4000    2.4249    0.0000 C   0  0  0
    2.1000    3.6373    0.0000 O   0  0  0
   -0.0000    2.4249    0.0000 O   0  0  0
  2  1  1  6
  3  4  1
  4  5  1  1
  4  6  1
  6  7  2
  6  8  1
  2  3  1
  2  9  1
  9 10  2
  9 11  1
M  END
> <ZINC_ID>
895967

> <Docking_Score>
-29.288

> <Vendor>
Chemimprex

$$$$
C4H9NO5S
  MOLSOFT 06181908472D

 11 10  0  0  1  0  0  0  0  0999 V2000
    1.4000    0.0000    0.0000 N   0  0  0
    2.1000    1.2124    0.0000 C   0  0  2
    3.5000    1.2124    0.0000 C   0  0  0
    4.2000    2.4249    0.0000 C   0  0  0
    5.6000    2.4249    0.0000 S   0  0  0
    5.6000    3.8249    0.0000 O   0  0  0
    5.6000    1.0249    0.0000 O   0  0  0
    7.0000    2.4249    0.0000 O   0  0  0
    1.4000    2.4249    0.0000 C   0  0  0
    2.1000    3.6373    0.0000 O   0  0  0
   -0.0000    2.4249    0.0000 O   0  0  0
  2  1  1  1
  3  4  1
  4  5  1
  5  6  2
  5  7  2
  5  8  1
  2  3  1
  2  9  1
  9 10  2
  9 11  1
M  END
> <ZINC_ID>
2545126

> <Docking_Score>
-29.24

> <Vendor>
Combiblocks

$$$$
C5H8NO4
  MOLSOFT 06181908472D

 10  9  0  0  1  0  0  0  0  0999 V2000
    4.2000    2.4249    0.0000 C   0  0  0
    3.5000    1.2124    0.0000 C   0  0  0
    2.1000    1.2124    0.0000 C   0  0  0
    1.4000    0.0000    0.0000 O   0  0  0
    1.4000    2.4249    0.0000 O   0  5  0
    5.6000    2.4249    0.0000 C   0  0  2
    6.3000    3.6373    0.0000 C   0  0  0
    5.6000    4.8497    0.0000 O   0  0  0
    7.7000    3.6373    0.0000 O   0  5  0
    6.3000    1.2124    0.0000 N   0  3  0
  2  3  1
  3  4  2
  3  5  1
  1  2  1
  1  6  1
  7  8  2
  7  9  1
  6  7  1
  6 10  1  6
M  CHG  3   5  -1   9  -1  10   1
M  END
> <ZINC_ID>
895124

> <Docking_Score>
-29.12

> <Vendor>
Combiblocks

$$$$
C13H20N4O6
  MOLSOFT 06181908472D

 23 23  0  0  1  0  0  0  0  0999 V2000
   -5.6000   -4.8497    0.0000 C   0  0  0
   -6.3000   -3.6373    0.0000 C   0  0  2
   -5.6000   -2.4249    0.0000 N   0  0  0
   -4.2000   -2.4249    0.0000 C   0  0  0
   -3.5000   -3.6373    0.0000 O   0  0  0
   -3.5000   -1.2124    0.0000 C   0  0  2
   -4.2000   -0.0000    0.0000 C   0  0  0
   -5.6000   -0.0000    0.0000 C   0  0  0
   -6.3000    1.2124    0.0000 C   0  0  0
   -5.6000    2.4249    0.0000 N   0  0  0
   -7.7000    1.2124    0.0000 O   0  0  0
   -2.1000   -1.2124    0.0000 N   0  0  0
   -1.4000   -0.0000    0.0000 C   0  0  0
   -2.1000    1.2124    0.0000 O   0  0  0
   -0.0000   -0.0000    0.0000 C   0  0  2
    0.8229    1.1326    0.0000 C   0  0  0
    2.1544    0.7000    0.0000 C   0  0  0
    2.1544   -0.7000    0.0000 C   0  0  0
    3.2870   -1.5229    0.0000 O   0  0  0
    0.8229   -1.1326    0.0000 N   0  0  0
   -7.7000   -3.6373    0.0000 C   0  0  0
   -8.4000   -2.4249    0.0000 O   0  0  0
   -8.4000   -4.8497    0.0000 O   0  0  0
  2  1  1  1
  3  4  1
  4  5  2
  4  6  1
  7  8  1
  8  9  1
  9 10  1
  9 11  2
  6  7  1  6
  6 12  1
 12 13  1
 13 14  2
 15 13  1  6
 15 16  1
 16 17  1
 17 18  1
 18 19  2
 20 15  1
 18 20  1
  2  3  1
  2 21  1
 21 22  2
 21 23  1
M  END
> <ZINC_ID>
4899658

> <Docking_Score>
-28.828

> <Vendor>
Chemimprex

$$$$
C6H10O7
  MOLSOFT 06181908472D

 13 13  0  0  1  0  0  0  0  0999 V2000
   -2.1000    1.2124    0.0000 O   0  0  0
   -1.4000    0.0000    0.0000 C   0  0  0
   -2.1000   -1.2124    0.0000 O   0  0  0
    0.0000    0.0000    0.0000 C   0  0  1
    0.7000    1.2124    0.0000 O   0  0  0
    2.1000    1.2124    0.0000 C   0  0  1
    2.8000    2.4249    0.0000 O   0  0  0
    2.8000   -0.0000    0.0000 C   0  0  2
    4.2000   -0.0000    0.0000 O   0  0  0
    2.1000   -1.2124    0.0000 C   0  0  1
    2.8000   -2.4249    0.0000 O   0  0  0
    0.7000   -1.2124    0.0000 C   0  0  2
   -0.0000   -2.4249    0.0000 O   0  0  0
  1  2  2
  2  3  1
  4  2  1  1
  4  5  1
  5  6  1
  6  7  1  1
  6  8  1
  8  9  1  6
  8 10  1
 10 11  1  1
 12  4  1
 10 12  1
 12 13  1  6
M  END
> <ZINC_ID>
4097543

> <Docking_Score>
-28.657

> <Vendor>
ACROS

$$$$
C10H17N3O6S
  MOLSOFT 06181908472D

 20 19  0  0  1  0  0  0  0  0999 V2000
    1.4000    0.0000    0.0000 N   0  0  0
    2.1000    1.2124    0.0000 C   0  0  1
    3.5000    1.2124    0.0000 C   0  0  0
    4.2000    2.4249    0.0000 C   0  0  0
    5.6000    2.4249    0.0000 C   0  0  0
    6.3000    1.2124    0.0000 O   0  0  0
    6.3000    3.6373    0.0000 N   0  0  0
    7.7000    3.6373    0.0000 C   0  0  1
    8.4000    2.4249    0.0000 C   0  0  0
    9.8000    2.4249    0.0000 S   0  0  0
    8.4000    4.8497    0.0000 C   0  0  0
    7.7000    6.0622    0.0000 O   0  0  0
    9.8000    4.8497    0.0000 N   0  0  0
   10.5000    6.0622    0.0000 C   0  0  0
   11.9000    6.0622    0.0000 C   0  0  0
   12.6000    4.8497    0.0000 O   0  0  0
   12.6000    7.2746    0.0000 O   0  0  0
    1.4000    2.4249    0.0000 C   0  0  0
    2.1000    3.6373    0.0000 O   0  0  0
   -0.0000    2.4249    0.0000 O   0  0  0
  2  1  1  6
  3  4  1
  4  5  1
  5  6  2
  5  7  1
  7  8  1
  9 10  1
  8  9  1
  8 11  1  6
 11 12  2
 11 13  1
 13 14  1
 14 15  1
 15 16  2
 15 17  1
  2  3  1
  2 18  1
 18 19  2
 18 20  1
M  END
> <ZINC_ID>
3830891

> <Docking_Score>
-28.55

> <Vendor>
Chemimprex

$$$$
C6H9NO4
  MOLSOFT 06181908472D

 11 11  0  0  1  0  0  0  0  0999 V2000
   -1.4000   -2.4249    0.0000 O   0  0  0
   -2.1000   -1.2124    0.0000 C   0  0  0
   -3.5000   -1.2124    0.0000 O   0  0  0
   -1.4000   -0.0000    0.0000 C   0  0  0
   -0.0000   -0.0000    0.0000 N   0  0  0
    0.8229    1.1326    0.0000 C   0  0  0
    2.1544    0.7000    0.0000 C   0  0  1
    3.2870    1.5229    0.0000 O   0  0  0
    2.1544   -0.7000    0.0000 C   0  0  0
    0.8229   -1.1326    0.0000 C   0  0  0
    0.3903   -2.4641    0.0000 O   0  0  0
  1  2  2
  2  3  1
  2  4  1
  4  5  1
  5  6  1
  6  7  1
  7  8  1  1
  7  9  1
 10  5  1
  9 10  1
 10 11  2
M  END
> <ZINC_ID>
12647822

> <Docking_Score>
-28.516

> <Vendor>
Combiblocks

$$$$
C4H7NO4
  MOLSOFT 06181908472D

  9  8  0  0  1  0  0  0  0  0999 V2000
    1.4000    0.0000    0.0000 N   0  0  0
    2.1000    1.2124    0.0000 C   0  0  2
    3.5000    1.2124    0.0000 C   0  0  0
    4.2000    2.4249    0.0000 C   0  0  0
    3.5000    3.6373    0.0000 O   0  0  0
    5.6000    2.4249    0.0000 O   0  0  0
    1.4000    2.4249    0.0000 C   0  0  0
    2.1000    3.6373    0.0000 O   0  0  0
   -0.0000    2.4249    0.0000 O   0  0  0
  2  1  1  1
  3  4  1
  4  5  2
  4  6  1
  2  3  1
  2  7  1
  7  8  2
  7  9  1
M  END
> <ZINC_ID>
895218

> <Docking_Score>
-28.265

> <Vendor>
Aksci

$$$$
C7H7NO4
  MOLSOFT 06181908472D

 12 12  0  0  0  0  0  0  0  0999 V2000
   -4.2000   -0.0000    0.0000 O   0  0  0
   -3.5000   -1.2124    0.0000 C   0  0  0
   -4.2000   -2.4249    0.0000 O   0  0  0
   -2.1000   -1.2124    0.0000 C   0  0  0
   -1.4000   -0.0000    0.0000 C   0  0  0
   -0.0000   -0.0000    0.0000 N   0  0  0
    0.8229    1.1326    0.0000 C   0  0  0
    0.3903    2.4641    0.0000 O   0  0  0
    2.1544    0.7000    0.0000 C   0  0  0
    2.1544   -0.7000    0.0000 C   0  0  0
    0.8229   -1.1326    0.0000 C   0  0  0
    0.3903   -2.4641    0.0000 O   0  0  0
  1  2  2
  2  3  1
  2  4  1
  4  5  1
  5  6  1
  6  7  1
  7  8  2
  7  9  1
  9 10  2
 11  6  1
 10 11  1
 11 12  2
M  END
> <ZINC_ID>
2168675

> <Docking_Score>
-28.192

> <Vendor>
Combiblocks

$$$$
C5H6N2O4
  MOLSOFT 06181908472D

 11 11  0  0  0  0  0  0  0  0999 V2000
   -1.4000   -2.4249    0.0000 O   0  0  0
   -2.1000   -1.2124    0.0000 C   0  0  0
   -3.5000   -1.2124    0.0000 O   0  0  0
   -1.4000   -0.0000    0.0000 C   0  0  0
   -0.0000   -0.0000    0.0000 N   0  0  0
    0.8229    1.1326    0.0000 C   0  0  0
    0.3903    2.4641    0.0000 O   0  0  0
    2.1544    0.7000    0.0000 C   0  0  0
    2.1544   -0.7000    0.0000 N   0  0  0
    0.8229   -1.1326    0.0000 C   0  0  0
    0.3903   -2.4641    0.0000 O   0  0  0
  1  2  2
  2  3  1
  2  4  1
  4  5  1
  5  6  1
  6  7  2
  6  8  1
  8  9  1
 10  5  1
  9 10  1
 10 11  2
M  END
> <ZINC_ID>
3394130

> <Docking_Score>
-28.124

> <Vendor>
Enamine

$$$$
C6H11NO4
  MOLSOFT 06181908472D

 11 10  0  0  1  0  0  0  0  0999 V2000
    1.4000    0.0000    0.0000 C   0  0  0
    2.1000    1.2124    0.0000 N   0  0  0
    3.5000    1.2124    0.0000 C   0  0  2
    4.2000    2.4249    0.0000 C   0  0  0
    5.6000    2.4249    0.0000 C   0  0  0
    6.3000    3.6373    0.0000 C   0  0  0
    5.6000    4.8497    0.0000 O   0  0  0
    7.7000    3.6373    0.0000 O   0  0  0
    4.2000    0.0000    0.0000 C   0  0  0
    3.5000   -1.2124    0.0000 O   0  0  0
    5.6000    0.0000    0.0000 O   0  0  0
  1  2  1
  2  3  1
  4  5  1
  5  6  1
  6  7  2
  6  8  1
  3  4  1  6
  3  9  1
  9 10  2
  9 11  1
M  END
> <ZINC_ID>
1701273

> <Docking_Score>
-28.01

> <Vendor>
Aksci

$$$$
C4H8O5
  MOLSOFT 06181908472D

  9  8  0  0  1  0  0  0  0  0999 V2000
    1.4000    0.0000    0.0000 O   0  0  0
    2.1000    1.2124    0.0000 C   0  0  0
    1.4000    2.4249    0.0000 O   0  0  0
    3.5000    1.2124    0.0000 C   0  0  1
    4.2000    0.0000    0.0000 O   0  0  0
    4.2000    2.4249    0.0000 C   0  0  2
    3.5000    3.6373    0.0000 O   0  0  0
    5.6000    2.4249    0.0000 C   0  0  0
    6.3000    3.6373    0.0000 O   0  0  0
  1  2  2
  2  3  1
  2  4  1
  4  5  1  6
  4  6  1
  6  7  1  6
  6  8  1
  8  9  1
M  END
> <ZINC_ID>
901060

> <Docking_Score>
-27.853

> <Vendor>
Sialbb

$$$$
C7H9NO4
  MOLSOFT 06181908472D

 12 12  0  0  0  0  0  0  0  0999 V2000
   -4.2000   -0.0000    0.0000 O   0  0  0
   -3.5000   -1.2124    0.0000 C   0  0  0
   -4.2000   -2.4249    0.0000 O   0  0  0
   -2.1000   -1.2124    0.0000 C   0  0  0
   -1.4000   -0.0000    0.0000 C   0  0  0
   -0.0000   -0.0000    0.0000 N   0  0  0
    0.8229    1.1326    0.0000 C   0  0  0
    0.3903    2.4641    0.0000 O   0  0  0
    2.1544    0.7000    0.0000 C   0  0  0
    2.1544   -0.7000    0.0000 C   0  0  0
    0.8229   -1.1326    0.0000 C   0  0  0
    0.3903   -2.4641    0.0000 O   0  0  0
  1  2  2
  2  3  1
  2  4  1
  4  5  1
  5  6  1
  6  7  1
  7  8  2
  7  9  1
  9 10  1
 11  6  1
 10 11  1
 11 12  2
M  END
> <ZINC_ID>
1688948

> <Docking_Score>
-27.751

> <Vendor>
Aksci

$$$$
C5H10O6
  MOLSOFT 06181908472D

 11 10  0  0  1  0  0  0  0  0999 V2000
    1.4000    0.0000    0.0000 O   0  0  0
    2.1000    1.2124    0.0000 C   0  0  0
    1.4000    2.4249    0.0000 O   0  0  0
    3.5000    1.2124    0.0000 C   0  0  1
    4.2000    0.0000    0.0000 O   0  0  0
    4.2000    2.4249    0.0000 C   0  0  2
    3.5000    3.6373    0.0000 O   0  0  0
    5.6000    2.4249    0.0000 C   0  0  1
    6.3000    1.2124    0.0000 O   0  0  0
    6.3000    3.6373    0.0000 C   0  0  0
    7.7000    3.6373    0.0000 O   0  0  0
  1  2  2
  2  3  1
  2  4  1
  4  5  1  6
  4  6  1
  6  7  1  6
  6  8  1
  8  9  1  6
  8 10  1
 10 11  1
M  END
> <ZINC_ID>
895291

> <Docking_Score>
-27.671

> <Vendor>
Sialbb

$$$$
C4H9NO4S
  MOLSOFT 06181908472D

 10  9  0  0  0  0  0  0  0  0999 V2000
    1.4000    0.0000    0.0000 C   0  0  0
    2.1000    1.2124    0.0000 N   0  0  0
    3.5000    1.2124    0.0000 C   0  0  0
    4.2000    2.4249    0.0000 C   0  0  0
    3.5000    3.6373    0.0000 O   0  0  0
    5.6000    2.4249    0.0000 O   0  0  0
    1.4000    2.4249    0.0000 S   0  0  0
    0.1876    1.7249    0.0000 C   0  0  0
    2.6124    3.1249    0.0000 O   0  0  0
    0.7000    3.6373    0.0000 O   0  0  0
  1  2  1
  3  4  1
  4  5  2
  4  6  1
  2  3  1
  2  7  1
  7  8  1
  7  9  2
  7 10  2
M  END
> <ZINC_ID>
4992804

> <Docking_Score>
-27.644

> <Vendor>
Combiblocks

$$$$
C10H22N2O8S2
  MOLSOFT 06181908472D

 22 22  0  0  1  0  0  0  0  0999 V2000
   -5.4124   -1.7249    0.0000 O   0  0  0
   -4.2000   -2.4249    0.0000 S   0  0  0
   -2.9876   -3.1249    0.0000 O   0  0  0
   -4.9000   -3.6373    0.0000 O   0  0  0
   -3.5000   -1.2124    0.0000 C   0  0  0
   -2.1000   -1.2124    0.0000 C   0  0  2
   -1.4000   -2.4249    0.0000 O   0  0  0
   -1.4000    0.0000    0.0000 C   0  0  0
    0.0000    0.0000    0.0000 N   0  0  0
    0.7000    1.2124    0.0000 C   0  0  0
    2.1000    1.2124    0.0000 C   0  0  0
    2.8000   -0.0000    0.0000 N   0  0  0
    4.2000   -0.0000    0.0000 C   0  0  0
    4.9000    1.2124    0.0000 C   0  0  1
    4.2000    2.4249    0.0000 O   0  0  0
    6.3000    1.2124    0.0000 C   0  0  0
    7.0000    2.4249    0.0000 S   0  0  0
    5.7876    3.1249    0.0000 O   0  0  0
    8.2124    1.7249    0.0000 O   0  0  0
    7.7000    3.6373    0.0000 O   0  0  0
    2.1000   -1.2124    0.0000 C   0  0  0
    0.7000   -1.2124    0.0000 C   0  0  0
  1  2  2
  2  3  2
  2  4  1
  2  5  1
  5  6  1
  6  7  1  1
  6  8  1
  8  9  1
  9 10  1
 10 11  1
 11 12  1
 13 14  1
 14 15  1  1
 14 16  1
 16 17  1
 17 18  2
 17 19  2
 17 20  1
 12 13  1
 12 21  1
 22  9  1
 21 22  1
M  END
> <ZINC_ID>
19370493

> <Docking_Score>
-27.643

> <Vendor>
Combiblocks

$$$$
C9H12N2O3S
  MOLSOFT 06181908472D

 15 16  0  0  1  0  0  0  0  0999 V2000
   -1.4000   -2.4249    0.0000 O   0  0  0
   -2.1000   -1.2124    0.0000 C   0  0  0
   -3.5000   -1.2124    0.0000 O   0  0  0
   -1.4000   -0.0000    0.0000 C   0  0  0
   -0.0000   -0.0000    0.0000 C   0  0  1
    0.8229    1.1326    0.0000 S   0  0  0
    2.1544    0.7000    0.0000 C   0  0  0
    3.2870    1.5229    0.0000 N   0  0  0
    3.2870    2.9229    0.0000 C   0  0  0
    4.6185    3.3555    0.0000 C   0  0  0
    5.4414    2.2229    0.0000 C   0  0  0
    4.6185    1.0903    0.0000 C   0  0  0
    2.1544   -0.7000    0.0000 N   0  0  0
    0.8229   -1.1326    0.0000 C   0  0  0
    0.3903   -2.4641    0.0000 O   0  0  0
  1  2  2
  2  3  1
  2  4  1
  5  4  1  1
  5  6  1
  6  7  1
  8  9  1
  9 10  1
 10 11  1
 12  8  1
 11 12  1
  7  8  1
  7 13  2
 14  5  1
 13 14  1
 14 15  2
M  END
> <ZINC_ID>
4200498

> <Docking_Score>
-27.58

> <Vendor>
Enamine

$$$$
C12H22O12
  MOLSOFT 06181908472D

 24 24  0  0  1  0  0  0  0  0999 V2000
   -6.3000    1.2124    0.0000 O   0  0  0
   -5.6000    2.4249    0.0000 C   0  0  0
   -6.3000    3.6373    0.0000 O   0  0  0
   -4.2000    2.4249    0.0000 C   0  0  2
   -3.5000    3.6373    0.0000 O   0  0  0
   -3.5000    1.2124    0.0000 C   0  0  1
   -4.2000    0.0000    0.0000 O   0  0  0
   -2.1000    1.2124    0.0000 C   0  0  2
   -1.4000    0.0000    0.0000 O   0  0  0
    0.0000    0.0000    0.0000 C   0  0  2
    0.7000    1.2124    0.0000 O   0  0  0
    2.1000    1.2124    0.0000 C   0  0  2
    2.8000    2.4249    0.0000 C   0  0  0
    2.1000    3.6373    0.0000 O   0  0  0
    2.8000   -0.0000    0.0000 C   0  0  2
    4.2000   -0.0000    0.0000 O   0  0  0
    2.1000   -1.2124    0.0000 C   0  0  2
    2.8000   -2.4249    0.0000 O   0  0  0
    0.7000   -1.2124    0.0000 C   0  0  1
   -0.0000   -2.4249    0.0000 O   0  0  0
   -1.4000    2.4249    0.0000 C   0  0  2
    0.0000    2.4249    0.0000 O   0  0  0
   -2.1000    3.6373    0.0000 C   0  0  0
   -1.4000    4.8497    0.0000 O   0  0  0
  1  2  2
  2  3  1
  2  4  1
  4  5  1  6
  4  6  1
  6  7  1  6
  6  8  1
 10  9  1  6
 10 11  1
 11 12  1
 13 14  1
 12 13  1  6
 12 15  1
 15 16  1  6
 15 17  1
 17 18  1  6
 19 10  1
 17 19  1
 19 20  1  1
  8  9  1  1
  8 21  1
 21 22  1  1
 21 23  1
 23 24  1
M  END
> <ZINC_ID>
4215172

> <Docking_Score>
-27.576

> <Vendor>
Combiblocks

$$$$
C12H22O11
  MOLSOFT 06181908472D

 23 24  0  0  1  0  0  0  0  0999 V2000
   -2.1000   -1.2124    0.0000 O   0  0  0
   -1.4000    0.0000    0.0000 C   0  0  0
    0.0000    0.0000    0.0000 C   0  0  1
    0.7000    1.2124    0.0000 O   0  0  0
    2.1000    1.2124    0.0000 C   0  0  1
    2.8000    2.4249    0.0000 O   0  0  0
    2.1000    3.6373    0.0000 C   0  0  2
    0.7000    3.6373    0.0000 C   0  0  1
   -0.0000    2.4249    0.0000 C   0  0  0
   -1.4000    2.4249    0.0000 O   0  0  0
   -0.0000    4.8497    0.0000 O   0  0  0
    0.7000    6.0622    0.0000 C   0  0  2
   -0.0000    7.2746    0.0000 O   0  0  0
    2.1000    6.0622    0.0000 C   0  0  2
    2.8000    7.2746    0.0000 O   0  0  0
    2.8000    4.8497    0.0000 C   0  0  1
    4.2000    4.8497    0.0000 O   0  0  0
    2.8000   -0.0000    0.0000 C   0  0  2
    4.2000   -0.0000    0.0000 O   0  0  0
    2.1000   -1.2124    0.0000 C   0  0  1
    2.8000   -2.4249    0.0000 O   0  0  0
    0.7000   -1.2124    0.0000 C   0  0  2
   -0.0000   -2.4249    0.0000 O   0  0  0
  1  2  1
  3  2  1  1
  3  4  1
  4  5  1
  7  6  1  6
  7  8  1
  9 10  1
  8  9  1  1
  8 11  1
 11 12  1
 12 13  1  6
 12 14  1
 14 15  1  6
 16  7  1
 14 16  1
 16 17  1  1
  5  6  1  1
  5 18  1
 18 19  1  6
 18 20  1
 20 21  1  1
 22  3  1
 20 22  1
 22 23  1  6
M  END
> <ZINC_ID>
3978744

> <Docking_Score>
-27.542

> <Vendor>
Combiblocks

$$$$
C5H10N2O4
  MOLSOFT 06181908472D

 11 10  0  0  0  0  0  0  0  0999 V2000
    1.4000    0.0000    0.0000 N   0  0  0
    2.1000    1.2124    0.0000 C   0  0  1
    3.5000    1.2124    0.0000 C   0  0  0
    4.2000    2.4249    0.0000 C   0  0  1
    3.5000    3.6373    0.0000 N   0  0  0
    5.6000    2.4249    0.0000 C   0  0  0
    6.3000    1.2124    0.0000 O   0  0  0
    6.3000    3.6373    0.0000 O   0  0  0
    1.4000    2.4249    0.0000 C   0  0  0
    2.1000    3.6373    0.0000 O   0  0  0
   -0.0000    2.4249    0.0000 O   0  0  0
  2  1  1  6
  3  4  1
  4  5  1  1
  4  6  1
  6  7  2
  6  8  1
  2  3  1
  2  9  1
  9 10  2
  9 11  1
M  END
> <ZINC_ID>
1689056

> <Docking_Score>
-27.478

> <Vendor>
Aksci

$$$$
C10H10N2O3S
  MOLSOFT 06181908472D

 16 17  0  0  0  0  0  0  0  0999 V2000
   -1.4000   -0.0000    0.0000 C   0  0  0
   -0.0000   -0.0000    0.0000 C   0  0  0
    0.8229    1.1326    0.0000 S   0  0  0
    2.1544    0.7000    0.0000 C   0  0  0
    3.3668    1.4000    0.0000 N   0  0  0
    4.5792    0.7000    0.0000 C   0  0  0
    4.5792   -0.7000    0.0000 N   0  0  0
    5.7917   -1.4000    0.0000 C   0  0  0
    7.0041   -0.7000    0.0000 C   0  0  0
    7.0041    0.7000    0.0000 O   0  0  0
    8.2166   -1.4000    0.0000 O   0  0  0
    3.3668   -1.4000    0.0000 C   0  0  0
    3.3668   -2.8000    0.0000 O   0  0  0
    2.1544   -0.7000    0.0000 C   0  0  0
    0.8229   -1.1326    0.0000 C   0  0  0
    0.3903   -2.4641    0.0000 C   0  0  0
  1  2  1
  2  3  1
  3  4  1
  4  5  1
  5  6  2
  6  7  1
  8  9  1
  9 10  2
  9 11  1
  7  8  1
  7 12  1
 12 13  2
 14  4  2
 12 14  1
 15  2  2
 14 15  1
 15 16  1
M  END
> <ZINC_ID>
279657

> <Docking_Score>
-27.468

> <Vendor>
Enamine

$$$$
C5H9NO4
  MOLSOFT 06181908472D

 10  9  0  0  1  0  0  0  0  0999 V2000
    1.4000    0.0000    0.0000 C   0  0  0
    2.1000    1.2124    0.0000 N   0  0  0
    3.5000    1.2124    0.0000 C   0  0  2
    4.2000    2.4249    0.0000 C   0  0  0
    5.6000    2.4249    0.0000 C   0  0  0
    6.3000    1.2124    0.0000 O   0  0  0
    6.3000    3.6373    0.0000 O   0  0  0
    4.2000    0.0000    0.0000 C   0  0  0
    3.5000   -1.2124    0.0000 O   0  0  0
    5.6000    0.0000    0.0000 O   0  0  0
  1  2  1
  2  3  1
  4  5  1
  5  6  2
  5  7  1
  3  4  1  6
  3  8  1
  8  9  2
  8 10  1
M  END
> <ZINC_ID>
901012

> <Docking_Score>
-27.466

> <Vendor>
Sialbb

$$$$
C5H8FNO4
  MOLSOFT 06181908472D

 11 10  0  0  1  0  0  0  0  0999 V2000
    1.4000    0.0000    0.0000 N   0  0  0
    2.1000    1.2124    0.0000 C   0  0  2
    3.5000    1.2124    0.0000 C   0  0  0
    4.2000    2.4249    0.0000 C   0  0  2
    3.5000    3.6373    0.0000 F   0  0  0
    5.6000    2.4249    0.0000 C   0  0  0
    6.3000    1.2124    0.0000 O   0  0  0
    6.3000    3.6373    0.0000 O   0  0  0
    1.4000    2.4249    0.0000 C   0  0  0
    2.1000    3.6373    0.0000 O   0  0  0
   -0.0000    2.4249    0.0000 O   0  0  0
  2  1  1  1
  3  4  1
  4  5  1  6
  4  6  1
  6  7  2
  6  8  1
  2  3  1
  2  9  1
  9 10  2
  9 11  1
M  END
> <ZINC_ID>
2169443

> <Docking_Score>
-27.435

> <Vendor>
Synquest

$$$$
C5H9NO4
  MOLSOFT 06181908472D

 10  9  0  0  1  0  0  0  0  0999 V2000
    1.4000    0.0000    0.0000 C   0  0  0
    2.1000    1.2124    0.0000 C   0  0  1
    1.4000    2.4249    0.0000 C   0  0  0
    2.1000    3.6373    0.0000 O   0  0  0
   -0.0000    2.4249    0.0000 O   0  0  0
    3.5000    1.2124    0.0000 C   0  0  2
    4.2000    0.0000    0.0000 N   0  0  0
    4.2000    2.4249    0.0000 C   0  0  0
    3.5000    3.6373    0.0000 O   0  0  0
    5.6000    2.4249    0.0000 O   0  0  0
  2  1  1  1
  3  4  2
  3  5  1
  2  3  1
  2  6  1
  6  7  1  1
  6  8  1
  8  9  2
  8 10  1
M  END
> <ZINC_ID>
1677331

> <Docking_Score>
-27.431

> <Vendor>
Sialbb

$$$$
C4H8O4
  MOLSOFT 06181908472D

  8  7  0  0  1  0  0  0  0  0999 V2000
    1.4000    0.0000    0.0000 C   0  0  0
    2.1000    1.2124    0.0000 C   0  0  1
    1.4000    2.4249    0.0000 O   0  0  0
    3.5000    1.2124    0.0000 C   0  0  1
    4.2000    0.0000    0.0000 O   0  0  0
    4.2000    2.4249    0.0000 C   0  0  0
    3.5000    3.6373    0.0000 O   0  0  0
    5.6000    2.4249    0.0000 O   0  0  0
  2  1  1  1
  2  3  1
  2  4  1
  4  5  1  6
  4  6  1
  6  7  2
  6  8  1
M  END
> <ZINC_ID>
1695857

> <Docking_Score>
-27.359

> <Vendor>
Sialbb

$$$$
C7H10O3
  MOLSOFT 06181908472D

 10 10  0  0  1  0  0  0  0  0999 V2000
   -1.4000   -2.4249    0.0000 O   0  0  0
   -2.1000   -1.2124    0.0000 C   0  0  0
   -3.5000   -1.2124    0.0000 O   0  0  0
   -1.4000   -0.0000    0.0000 C   0  0  0
   -0.0000   -0.0000    0.0000 C   0  0  1
    0.8229    1.1326    0.0000 C   0  0  0
    2.1544    0.7000    0.0000 C   0  0  0
    2.1544   -0.7000    0.0000 C   0  0  0
    0.8229   -1.1326    0.0000 C   0  0  0
    0.3903   -2.4641    0.0000 O   0  0  0
  1  2  2
  2  3  1
  2  4  1
  5  4  1  1
  5  6  1
  6  7  1
  7  8  1
  9  5  1
  8  9  1
  9 10  2
M  END
> <ZINC_ID>
403346

> <Docking_Score>
-27.341

> <Vendor>
Alfa

$$$$
C10H19N5O5
  MOLSOFT 06181908472D

 20 19  0  0  1  0  0  0  0  0999 V2000
    1.4000    0.0000    0.0000 N   0  0  0
    2.1000    1.2124    0.0000 C   0  0  0
    1.4000    2.4249    0.0000 N   0  0  0
    3.5000    1.2124    0.0000 N   0  0  0
    4.2000    2.4249    0.0000 C   0  0  0
    5.6000    2.4249    0.0000 C   0  0  0
    6.3000    3.6373    0.0000 C   0  0  0
    7.7000    3.6373    0.0000 C   0  0  2
    8.4000    2.4249    0.0000 N   0  0  0
    8.4000    4.8497    0.0000 C   0  0  0
    7.7000    6.0622    0.0000 O   0  0  0
    9.8000    4.8497    0.0000 N   0  0  0
   10.5000    6.0622    0.0000 C   0  0  1
   11.9000    6.0622    0.0000 C   0  0  0
   12.6000    7.2746    0.0000 C   0  0  0
   11.9000    8.4870    0.0000 O   0  0  0
   14.0000    7.2746    0.0000 O   0  0  0
    9.8000    7.2746    0.0000 C   0  0  0
   10.5000    8.4870    0.0000 O   0  0  0
    8.4000    7.2746    0.0000 O   0  0  0
  1  2  2
  2  3  1
  2  4  1
  4  5  1
  5  6  1
  6  7  1
  7  8  1
  8  9  1  1
  8 10  1
 10 11  2
 10 12  1
 12 13  1
 14 15  1
 15 16  2
 15 17  1
 13 14  1  6
 13 18  1
 18 19  2
 18 20  1
M  END
> <ZINC_ID>
2384836

> <Docking_Score>
-27.333

> <Vendor>
Chemimprex

$$$$
C3H7NO4S
  MOLSOFT 06181908472D

  9  8  0  0  0  0  0  0  0  0999 V2000
    1.4000    0.0000    0.0000 N   0  0  0
    2.1000    1.2124    0.0000 S   0  0  0
    3.3124    0.5124    0.0000 O   0  0  0
    0.8876    1.9124    0.0000 O   0  0  0
    2.8000    2.4249    0.0000 C   0  0  0
    4.2000    2.4249    0.0000 C   0  0  0
    4.9000    3.6373    0.0000 C   0  0  0
    4.2000    4.8497    0.0000 O   0  0  0
    6.3000    3.6373    0.0000 O   0  0  0
  1  2  1
  2  3  2
  2  4  2
  2  5  1
  5  6  1
  6  7  1
  7  8  2
  7  9  1
M  END
> <ZINC_ID>
20244846

> <Docking_Score>
-27.332

> <Vendor>
Combiblocks

$$$$
C7H12O7
  MOLSOFT 06181908472D

 14 14  0  0  1  0  0  0  0  0999 V2000
   -2.1000   -1.2124    0.0000 C   0  0  0
   -1.4000    0.0000    0.0000 O   0  0  0
    0.0000    0.0000    0.0000 C   0  0  2
    0.7000    1.2124    0.0000 O   0  0  0
    2.1000    1.2124    0.0000 C   0  0  2
    2.8000    2.4249    0.0000 C   0  0  0
    4.2000    2.4249    0.0000 O   0  0  0
    2.1000    3.6373    0.0000 O   0  0  0
    2.8000   -0.0000    0.0000 C   0  0  1
    4.2000   -0.0000    0.0000 O   0  0  0
    2.1000   -1.2124    0.0000 C   0  0  2
    2.8000   -2.4249    0.0000 O   0  0  0
    0.7000   -1.2124    0.0000 C   0  0  1
   -0.0000   -2.4249    0.0000 O   0  0  0
  1  2  1
  3  2  1  6
  3  4  1
  4  5  1
  6  7  2
  6  8  1
  5  6  1  6
  5  9  1
  9 10  1  1
  9 11  1
 11 12  1  6
 13  3  1
 11 13  1
 13 14  1  1
M  END
> <ZINC_ID>
5998328

> <Docking_Score>
-27.331

> <Vendor>
Combiblocks

$$$$
C3H7NO5S
  MOLSOFT 06181908472D

 10  9  0  0  1  0  0  0  0  0999 V2000
    1.4000    0.0000    0.0000 N   0  0  0
    2.1000    1.2124    0.0000 C   0  0  1
    3.5000    1.2124    0.0000 C   0  0  0
    4.2000    2.4249    0.0000 S   0  0  0
    5.4124    1.7249    0.0000 O   0  0  0
    2.9876    3.1249    0.0000 O   0  0  0
    4.9000    3.6373    0.0000 O   0  0  0
    1.4000    2.4249    0.0000 C   0  0  0
    2.1000    3.6373    0.0000 O   0  0  0
   -0.0000    2.4249    0.0000 O   0  0  0
  2  1  1  6
  3  4  1
  4  5  2
  4  6  2
  4  7  1
  2  3  1
  2  8  1
  8  9  2
  8 10  1
M  END
> <ZINC_ID>
4228276

> <Docking_Score>
-27.308

> <Vendor>
Chemimprex

$$$$
C7H14O8
  MOLSOFT 06181908472D

 15 14  0  0  1  0  0  0  0  0999 V2000
    1.4000    0.0000    0.0000 O   0  0  0
    2.1000    1.2124    0.0000 C   0  0  0
    1.4000    2.4249    0.0000 O   0  0  0
    3.5000    1.2124    0.0000 C   0  0  2
    4.2000    0.0000    0.0000 O   0  0  0
    4.2000    2.4249    0.0000 C   0  0  2
    3.5000    3.6373    0.0000 O   0  0  0
    5.6000    2.4249    0.0000 C   0  0  1
    6.3000    1.2124    0.0000 O   0  0  0
    6.3000    3.6373    0.0000 C   0  0  2
    5.6000    4.8497    0.0000 O   0  0  0
    7.7000    3.6373    0.0000 C   0  0  2
    8.4000    2.4249    0.0000 O   0  0  0
    8.4000    4.8497    0.0000 C   0  0  0
    9.8000    4.8497    0.0000 O   0  0  0
  1  2  2
  2  3  1
  2  4  1
  4  5  1  1
  4  6  1
  6  7  1  6
  6  8  1
  8  9  1  6
  8 10  1
 10 11  1  6
 10 12  1
 12 13  1  1
 12 14  1
 14 15  1
M  END
> <ZINC_ID>
1531007

> <Docking_Score>
-27.304

> <Vendor>
Aksci

$$$$
C20H34O5
  MOLSOFT 06181908472D

 25 25  0  0  1  0  0  0  0  0999 V2000
   -8.4000   -4.8497    0.0000 C   0  0  0
   -7.7000   -3.6373    0.0000 C   0  0  0
   -6.3000   -3.6373    0.0000 C   0  0  0
   -5.6000   -2.4249    0.0000 C   0  0  0
   -4.2000   -2.4249    0.0000 C   0  0  0
   -3.5000   -1.2124    0.0000 C   0  0  2
   -4.2000   -0.0000    0.0000 O   0  0  0
   -2.1000   -1.2124    0.0000 C   0  0  0
   -1.4000   -0.0000    0.0000 C   0  0  0
   -0.0000   -0.0000    0.0000 C   0  0  1
    0.8229    1.1326    0.0000 C   0  0  2
    0.3903    2.4641    0.0000 O   0  0  0
    2.1544    0.7000    0.0000 C   0  0  0
    2.1544   -0.7000    0.0000 C   0  0  0
    3.2870   -1.5229    0.0000 O   0  0  0
    0.8229   -1.1326    0.0000 C   0  0  2
    0.3903   -2.4641    0.0000 C   0  0  0
    1.3271   -3.5045    0.0000 C   0  0  0
    0.8944   -4.8360    0.0000 C   0  0  0
    1.8312   -5.8764    0.0000 C   0  0  0
    1.3986   -7.2079    0.0000 C   0  0  0
    2.3354   -8.2483    0.0000 C   0  0  0
    1.9028   -9.5797    0.0000 C   0  0  0
    0.5333   -9.8708    0.0000 O   0  0  0
    2.8395  -10.6202    0.0000 O   0  0  0
  1  2  1
  2  3  1
  3  4  1
  4  5  1
  5  6  1
  6  7  1  6
  6  8  1
  8  9  2
 10  9  1  1
 10 11  1
 11 12  1  6
 11 13  1
 13 14  1
 14 15  2
 16 10  1
 14 16  1
 16 17  1  6
 17 18  1
 18 19  1
 19 20  1
 20 21  1
 21 22  1
 22 23  1
 23 24  2
 23 25  1
M  END
> <ZINC_ID>
3813088

> <Docking_Score>
-27.256

> <Vendor>
ACROS

$$$$
C4H7NO5
  MOLSOFT 06181908472D

 10  9  0  0  1  0  0  0  0  0999 V2000
    1.4000    0.0000    0.0000 N   0  0  0
    2.1000    1.2124    0.0000 C   0  0  1
    1.4000    2.4249    0.0000 C   0  0  0
    2.1000    3.6373    0.0000 O   0  0  0
   -0.0000    2.4249    0.0000 O   0  0  0
    3.5000    1.2124    0.0000 C   0  0  1
    4.2000    0.0000    0.0000 O   0  0  0
    4.2000    2.4249    0.0000 C   0  0  0
    3.5000    3.6373    0.0000 O   0  0  0
    5.6000    2.4249    0.0000 O   0  0  0
  2  1  1  1
  3  4  2
  3  5  1
  2  3  1
  2  6  1
  6  7  1  6
  6  8  1
  8  9  2
  8 10  1
M  END
> <ZINC_ID>
3875092

> <Docking_Score>
-27.254

> <Vendor>
Combiblocks

$$$$
C4H5NO6S
  MOLSOFT 06181908472D

 12 12  0  0  1  0  0  0  0  0999 V2000
   -1.4000   -0.0000    0.0000 O   0  0  0
   -0.0000   -0.0000    0.0000 C   0  0  0
    0.8229    1.1326    0.0000 C   0  0  0
    2.1544    0.7000    0.0000 C   0  0  2
    3.2870    1.5229    0.0000 S   0  0  0
    2.4641    2.6555    0.0000 O   0  0  0
    4.1099    0.3903    0.0000 O   0  0  0
    4.4196    2.3458    0.0000 O   0  0  0
    2.1544   -0.7000    0.0000 C   0  0  0
    3.2870   -1.5229    0.0000 O   0  0  0
    0.8229   -1.1326    0.0000 N   0  0  0
    0.3903   -2.4641    0.0000 O   0  0  0
  1  2  2
  2  3  1
  3  4  1
  5  6  2
  5  7  2
  5  8  1
  4  5  1  6
  4  9  1
  9 10  2
 11  2  1
  9 11  1
 11 12  1
M  END
> <ZINC_ID>
19850151

> <Docking_Score>
-27.242

> <Vendor>
Combiblocks

$$$$
C3H8O4S
  MOLSOFT 06181908472D

  8  7  0  0  0  0  0  0  0  0999 V2000
    1.4000    0.0000    0.0000 O   0  0  0
    2.1000    1.2124    0.0000 S   0  0  0
    3.3124    0.5124    0.0000 O   0  0  0
    0.8876    1.9124    0.0000 O   0  0  0
    2.8000    2.4249    0.0000 C   0  0  0
    4.2000    2.4249    0.0000 C   0  0  0
    4.9000    3.6373    0.0000 C   0  0  0
    6.3000    3.6373    0.0000 O   0  0  0
  1  2  2
  2  3  2
  2  4  1
  2  5  1
  5  6  1
  6  7  1
  7  8  1
M  END
> <ZINC_ID>
1736719

> <Docking_Score>
-27.222

> <Vendor>
Chemimprex

$$$$
C4H9NO4S
  MOLSOFT 06181908472D

 10  9  0  0  0  0  0  0  0  0999 V2000
    1.4000    0.0000    0.0000 C   0  0  0
    2.1000    1.2124    0.0000 S   0  0  0
    3.3124    0.5124    0.0000 O   0  0  0
    0.8876    1.9124    0.0000 O   0  0  0
    2.8000    2.4249    0.0000 N   0  0  0
    4.2000    2.4249    0.0000 C   0  0  0
    4.9000    3.6373    0.0000 C   0  0  0
    6.3000    3.6373    0.0000 C   0  0  0
    7.0000    2.4249    0.0000 O   0  0  0
    7.0000    4.8497    0.0000 O   0  0  0
  1  2  1
  2  3  2
  2  4  2
  2  5  1
  5  6  1
  6  7  1
  7  8  1
  8  9  2
  8 10  1
M  END
> <ZINC_ID>
4992771

> <Docking_Score>
-27.17

> <Vendor>
Enamine

$$$$
C5H9NO3
  MOLSOFT 06181908472D

  9  8  0  0  0  0  0  0  0  0999 V2000
    1.4000    0.0000    0.0000 N   0  0  0
    2.1000    1.2124    0.0000 C   0  0  0
    1.4000    2.4249    0.0000 O   0  0  0
    3.5000    1.2124    0.0000 C   0  0  0
    4.2000    2.4249    0.0000 C   0  0  0
    5.6000    2.4249    0.0000 C   0  0  0
    6.3000    3.6373    0.0000 C   0  0  0
    5.6000    4.8497    0.0000 O   0  0  0
    7.7000    3.6373    0.0000 O   0  0  0
  1  2  1
  2  3  2
  2  4  1
  4  5  1
  5  6  1
  6  7  1
  7  8  2
  7  9  1
M  END
> <ZINC_ID>
5112884

> <Docking_Score>
-27.12

> <Vendor>
Enamine

$$$$
C4H7NO4
  MOLSOFT 06181908472D

  9  8  0  0  1  0  0  0  0  0999 V2000
    1.4000    0.0000    0.0000 N   0  0  0
    2.1000    1.2124    0.0000 C   0  0  1
    3.5000    1.2124    0.0000 C   0  0  0
    4.2000    2.4249    0.0000 C   0  0  0
    3.5000    3.6373    0.0000 O   0  0  0
    5.6000    2.4249    0.0000 O   0  0  0
    1.4000    2.4249    0.0000 C   0  0  0
    2.1000    3.6373    0.0000 O   0  0  0
   -0.0000    2.4249    0.0000 O   0  0  0
  2  1  1  6
  3  4  1
  4  5  2
  4  6  1
  2  3  1
  2  7  1
  7  8  2
  7  9  1
M  END
> <ZINC_ID>
895032

> <Docking_Score>
-27.117

> <Vendor>
Chemimprex

$$$$
C6H10N2O4
  MOLSOFT 06181908472D

 12 11  0  0  0  0  0  0  0  0999 V2000
    1.4000    0.0000    0.0000 C   0  0  0
    2.1000    1.2124    0.0000 C   0  0  0
    1.4000    2.4249    0.0000 O   0  0  0
    3.5000    1.2124    0.0000 N   0  0  0
    4.2000    2.4249    0.0000 C   0  0  0
    5.6000    2.4249    0.0000 C   0  0  0
    6.3000    1.2124    0.0000 O   0  0  0
    6.3000    3.6373    0.0000 N   0  0  0
    7.7000    3.6373    0.0000 C   0  0  0
    8.4000    4.8497    0.0000 C   0  0  0
    7.7000    6.0622    0.0000 O   0  0  0
    9.8000    4.8497    0.0000 O   0  0  0
  1  2  1
  2  3  2
  2  4  1
  4  5  1
  5  6  1
  6  7  2
  6  8  1
  8  9  1
  9 10  1
 10 11  2
 10 12  1
M  END
> <ZINC_ID>
1721185

> <Docking_Score>
-27.109

> <Vendor>
Chemimprex

$$$$
C5H10O6
  MOLSOFT 06181908472D

 11 10  0  0  1  0  0  0  0  0999 V2000
    1.4000    0.0000    0.0000 O   0  0  0
    2.1000    1.2124    0.0000 C   0  0  0
    1.4000    2.4249    0.0000 O   0  0  0
    3.5000    1.2124    0.0000 C   0  0  1
    4.2000    0.0000    0.0000 O   0  0  0
    4.2000    2.4249    0.0000 C   0  0  1
    3.5000    3.6373    0.0000 O   0  0  0
    5.6000    2.4249    0.0000 C   0  0  2
    6.3000    1.2124    0.0000 O   0  0  0
    6.3000    3.6373    0.0000 C   0  0  0
    7.7000    3.6373    0.0000 O   0  0  0
  1  2  2
  2  3  1
  2  4  1
  4  5  1  6
  4  6  1
  6  7  1  1
  6  8  1
  8  9  1  1
  8 10  1
 10 11  1
M  END
> <ZINC_ID>
895290

> <Docking_Score>
-27.104

> <Vendor>
Combiblocks

$$$$
C3H7NO5S
  MOLSOFT 06181908472D

 10  9  0  0  1  0  0  0  0  0999 V2000
    1.4000    0.0000    0.0000 N   0  0  0
    2.1000    1.2124    0.0000 C   0  0  2
    3.5000    1.2124    0.0000 C   0  0  0
    4.2000    2.4249    0.0000 S   0  0  0
    5.4124    1.7249    0.0000 O   0  0  0
    2.9876    3.1249    0.0000 O   0  0  0
    4.9000    3.6373    0.0000 O   0  0  0
    1.4000    2.4249    0.0000 C   0  0  0
    2.1000    3.6373    0.0000 O   0  0  0
   -0.0000    2.4249    0.0000 O   0  0  0
  2  1  1  1
  3  4  1
  4  5  2
  4  6  2
  4  7  1
  2  3  1
  2  8  1
  8  9  2
  8 10  1
M  END
> <ZINC_ID>
3861739

> <Docking_Score>
-27.076

> <Vendor>
Enamine

$$$$
C7H9NO4S2
  MOLSOFT 06181908472D

 14 14  0  0  0  0  0  0  0  0999 V2000
   -3.5000    1.2124    0.0000 C   0  0  0
   -2.8000   -0.0000    0.0000 N   0  0  0
   -3.5000   -1.2124    0.0000 C   0  0  0
   -4.9000   -1.2124    0.0000 C   0  0  0
   -5.6000   -0.0000    0.0000 O   0  0  0
   -5.6000   -2.4249    0.0000 O   0  0  0
   -1.4000   -0.0000    0.0000 S   0  0  0
   -1.4000   -1.4000    0.0000 O   0  0  0
   -1.4000    1.4000    0.0000 O   0  0  0
   -0.0000   -0.0000    0.0000 C   0  0  0
    0.8229    1.1326    0.0000 C   0  0  0
    2.1544    0.7000    0.0000 C   0  0  0
    2.1544   -0.7000    0.0000 C   0  0  0
    0.8229   -1.1326    0.0000 S   0  0  0
  1  2  1
  3  4  1
  4  5  2
  4  6  1
  2  3  1
  2  7  1
  7  8  2
  7  9  2
  7 10  1
 10 11  2
 11 12  1
 12 13  2
 14 10  1
 13 14  1
M  END
> <ZINC_ID>
264950

> <Docking_Score>
-27.049

> <Vendor>
Sialbb

$$$$
C12H22O11
  MOLSOFT 06181908472D

 23 24  0  0  1  0  0  0  0  0999 V2000
   -2.1000   -1.2124    0.0000 O   0  0  0
   -1.4000    0.0000    0.0000 C   0  0  0
    0.0000    0.0000    0.0000 C   0  0  2
    0.7000    1.2124    0.0000 O   0  0  0
    2.1000    1.2124    0.0000 C   0  0  2
    2.8000    2.4249    0.0000 O   0  0  0
    2.8000   -0.0000    0.0000 C   0  0  1
    4.2000   -0.0000    0.0000 O   0  0  0
    2.1000   -1.2124    0.0000 C   0  0  2
    2.8000   -2.4249    0.0000 O   0  0  0
    0.7000   -1.2124    0.0000 C   0  0  1
   -0.0000   -2.4249    0.0000 O   0  0  0
    0.7000   -3.6373    0.0000 C   0  0  2
    2.1000   -3.6373    0.0000 O   0  0  0
    2.8000   -4.8497    0.0000 C   0  0  2
    4.2000   -4.8497    0.0000 C   0  0  0
    4.9000   -3.6373    0.0000 O   0  0  0
    2.1000   -6.0622    0.0000 C   0  0  2
    2.8000   -7.2746    0.0000 O   0  0  0
    0.7000   -6.0622    0.0000 C   0  0  2
    0.0000   -7.2746    0.0000 O   0  0  0
   -0.0000   -4.8497    0.0000 C   0  0  1
   -1.4000   -4.8497    0.0000 O   0  0  0
  1  2  1
  3  2  1  6
  3  4  1
  4  5  1
  5  6  1  6
  5  7  1
  7  8  1  1
  7  9  1
  9 10  1  6
 11  3  1
  9 11  1
 11 12  1  1
 13 12  1  6
 13 14  1
 14 15  1
 16 17  1
 15 16  1  6
 15 18  1
 18 19  1  6
 18 20  1
 20 21  1  6
 22 13  1
 20 22  1
 22 23  1  1
M  END
> <ZINC_ID>
13549339

> <Docking_Score>
-27.031

> <Vendor>
Enamine

$$$$
C4H7NO5
  MOLSOFT 06181908472D

 10  9  0  0  1  0  0  0  0  0999 V2000
    1.4000    0.0000    0.0000 N   0  0  0
    2.1000    1.2124    0.0000 C   0  0  1
    1.4000    2.4249    0.0000 C   0  0  0
    2.1000    3.6373    0.0000 O   0  0  0
   -0.0000    2.4249    0.0000 O   0  0  0
    3.5000    1.2124    0.0000 C   0  0  2
    4.2000    0.0000    0.0000 O   0  0  0
    4.2000    2.4249    0.0000 C   0  0  0
    3.5000    3.6373    0.0000 O   0  0  0
    5.6000    2.4249    0.0000 O   0  0  0
  2  1  1  1
  3  4  2
  3  5  1
  2  3  1
  2  6  1
  6  7  1  1
  6  8  1
  8  9  2
  8 10  1
M  END
> <ZINC_ID>
3875091

> <Docking_Score>
-27.03

> <Vendor>
Combiblocks

$$$$
C5H5NO4S
  MOLSOFT 06181908472D

 11 11  0  0  1  0  0  0  0  0999 V2000
   -1.4000   -2.4249    0.0000 O   0  0  0
   -2.1000   -1.2124    0.0000 C   0  0  0
   -3.5000   -1.2124    0.0000 O   0  0  0
   -1.4000   -0.0000    0.0000 C   0  0  0
   -0.0000   -0.0000    0.0000 C   0  0  1
    0.8229    1.1326    0.0000 S   0  0  0
    2.1544    0.7000    0.0000 C   0  0  0
    3.2870    1.5229    0.0000 O   0  0  0
    2.1544   -0.7000    0.0000 N   0  0  0
    0.8229   -1.1326    0.0000 C   0  0  0
    0.3903   -2.4641    0.0000 O   0  0  0
  1  2  2
  2  3  1
  2  4  1
  5  4  1  1
  5  6  1
  6  7  1
  7  8  2
  7  9  1
 10  5  1
  9 10  1
 10 11  2
M  END
> <ZINC_ID>
1292825

> <Docking_Score>
-27.018

> <Vendor>
Enamine

$$$$
C4H9NO4S
  MOLSOFT 06181908472D

 10  9  0  0  0  0  0  0  0  0999 V2000
    1.4000    0.0000    0.0000 N   0  0  0
    2.1000    1.2124    0.0000 S   0  0  0
    3.3124    0.5124    0.0000 O   0  0  0
    0.8876    1.9124    0.0000 O   0  0  0
    2.8000    2.4249    0.0000 C   0  0  0
    4.2000    2.4249    0.0000 C   0  0  0
    4.9000    3.6373    0.0000 C   0  0  0
    6.3000    3.6373    0.0000 C   0  0  0
    7.0000    2.4249    0.0000 O   0  0  0
    7.0000    4.8497    0.0000 O   0  0  0
  1  2  1
  2  3  2
  2  4  2
  2  5  1
  5  6  1
  6  7  1
  7  8  1
  8  9  2
  8 10  1
M  END
> <ZINC_ID>
2572488

> <Docking_Score>
-27.016

> <Vendor>
Chemimprex

$$$$
C9H14N2O4
  MOLSOFT 06181908472D

 15 15  0  0  1  0  0  0  0  0999 V2000
   -2.1000    1.2124    0.0000 N   0  0  0
   -1.4000   -0.0000    0.0000 C   0  0  0
   -2.1000   -1.2124    0.0000 O   0  0  0
   -0.0000   -0.0000    0.0000 C   0  0  2
    0.8229    1.1326    0.0000 C   0  0  0
    2.1544    0.7000    0.0000 C   0  0  0
    2.1544   -0.7000    0.0000 C   0  0  0
    0.8229   -1.1326    0.0000 N   0  0  0
    0.3903   -2.4641    0.0000 C   0  0  0
   -0.9791   -2.7552    0.0000 O   0  0  0
    1.3271   -3.5045    0.0000 C   0  0  0
    0.8944   -4.8360    0.0000 C   0  0  0
    1.8312   -5.8764    0.0000 C   0  0  0
    3.2006   -5.5853    0.0000 O   0  0  0
    1.3986   -7.2079    0.0000 O   0  0  0
  1  2  1
  2  3  2
  4  2  1  6
  4  5  1
  5  6  1
  6  7  1
  8  4  1
  7  8  1
  8  9  1
  9 10  2
  9 11  1
 11 12  1
 12 13  1
 13 14  2
 13 15  1
M  END
> <ZINC_ID>
376527

> <Docking_Score>
-26.994

> <Vendor>
Sialbb

$$$$
C9H11NO4
  MOLSOFT 06181908472D

 14 14  0  0  0  0  0  0  0  0999 V2000
   -1.4000   -0.0000    0.0000 C   0  0  0
   -0.0000   -0.0000    0.0000 C   0  0  0
    0.8229    1.1326    0.0000 C   0  0  0
    0.3903    2.4641    0.0000 C   0  0  0
    2.1544    0.7000    0.0000 C   0  0  0
    3.2870    1.5229    0.0000 O   0  0  0
    2.1544   -0.7000    0.0000 N   0  0  0
    3.2870   -1.5229    0.0000 C   0  0  0
    4.5660   -0.9535    0.0000 C   0  0  0
    5.6986   -1.7764    0.0000 C   0  0  0
    5.5523   -3.1687    0.0000 O   0  0  0
    6.9776   -1.2069    0.0000 O   0  0  0
    0.8229   -1.1326    0.0000 C   0  0  0
    0.3903   -2.4641    0.0000 O   0  0  0
  1  2  1
  2  3  2
  3  4  1
  3  5  1
  5  6  2
  5  7  1
  8  9  1
  9 10  1
 10 11  2
 10 12  1
  7  8  1
 13  2  1
  7 13  1
 13 14  2
M  END
> <ZINC_ID>
2848786

> <Docking_Score>
-26.994

> <Vendor>
Enamine

$$$$
C4H7NO3
  MOLSOFT 06181908472D

  8  7  0  0  0  0  0  0  0  0999 V2000
    1.4000    0.0000    0.0000 N   0  0  0
    2.1000    1.2124    0.0000 C   0  0  0
    1.4000    2.4249    0.0000 O   0  0  0
    3.5000    1.2124    0.0000 C   0  0  0
    4.2000    2.4249    0.0000 C   0  0  0
    5.6000    2.4249    0.0000 C   0  0  0
    6.3000    1.2124    0.0000 O   0  0  0
    6.3000    3.6373    0.0000 O   0  0  0
  1  2  1
  2  3  2
  2  4  1
  4  5  1
  5  6  1
  6  7  2
  6  8  1
M  END
> <ZINC_ID>
1718820

> <Docking_Score>
-26.983

> <Vendor>
Alfa

$$$$
C6H6N2O3
  MOLSOFT 06181908472D

 11 11  0  0  0  0  0  0  0  0999 V2000
   -1.4000   -2.4249    0.0000 O   0  0  0
   -2.1000   -1.2124    0.0000 C   0  0  0
   -3.5000   -1.2124    0.0000 O   0  0  0
   -1.4000    0.0000    0.0000 C   0  0  0
    0.0000    0.0000    0.0000 N   0  0  0
    0.7000    1.2124    0.0000 C   0  0  0
    2.1000    1.2124    0.0000 C   0  0  0
    2.8000   -0.0000    0.0000 C   0  0  0
    2.1000   -1.2124    0.0000 N   0  0  0
    0.7000   -1.2124    0.0000 C   0  0  0
   -0.0000   -2.4249    0.0000 O   0  0  0
  1  2  2
  2  3  1
  2  4  1
  4  5  1
  5  6  4
  6  7  4
  7  8  4
  8  9  4
 10  5  4
  9 10  4
 10 11  2
M  END
> <ZINC_ID>
819020

> <Docking_Score>
-26.982

> <Vendor>
Chemimprex

$$$$
C8H16N2O4S2
  MOLSOFT 06181908472D

 16 15  0  0  1  0  0  0  0  0999 V2000
    1.4000    0.0000    0.0000 N   0  0  0
    2.1000    1.2124    0.0000 C   0  0  1
    3.5000    1.2124    0.0000 C   0  0  0
    4.2000    2.4249    0.0000 C   0  0  0
    5.6000    2.4249    0.0000 S   0  0  0
    6.3000    3.6373    0.0000 S   0  0  0
    7.7000    3.6373    0.0000 C   0  0  0
    8.4000    4.8497    0.0000 C   0  0  0
    9.8000    4.8497    0.0000 C   0  0  2
   10.5000    3.6373    0.0000 N   0  0  0
   10.5000    6.0622    0.0000 C   0  0  0
    9.8000    7.2746    0.0000 O   0  0  0
   11.9000    6.0622    0.0000 O   0  0  0
    1.4000    2.4249    0.0000 C   0  0  0
    2.1000    3.6373    0.0000 O   0  0  0
   -0.0000    2.4249    0.0000 O   0  0  0
  2  1  1  6
  3  4  1
  4  5  1
  5  6  1
  6  7  1
  7  8  1
  8  9  1
  9 10  1  1
  9 11  1
 11 12  2
 11 13  1
  2  3  1
  2 14  1
 14 15  2
 14 16  1
M  END
> <ZINC_ID>
1529294

> <Docking_Score>
-26.967

> <Vendor>
Combiblocks

$$$$
C12H22O12
  MOLSOFT 06181908472D

 24 24  0  0  1  0  0  0  0  0999 V2000
   -6.3000    1.2124    0.0000 O   0  0  0
   -5.6000    2.4249    0.0000 C   0  0  0
   -6.3000    3.6373    0.0000 O   0  0  0
   -4.2000    2.4249    0.0000 C   0  0  2
   -3.5000    3.6373    0.0000 O   0  0  0
   -3.5000    1.2124    0.0000 C   0  0  1
   -4.2000    0.0000    0.0000 O   0  0  0
   -2.1000    1.2124    0.0000 C   0  0  2
   -1.4000    0.0000    0.0000 O   0  0  0
    0.0000    0.0000    0.0000 C   0  0  2
    0.7000    1.2124    0.0000 O   0  0  0
    2.1000    1.2124    0.0000 C   0  0  2
    2.8000    2.4249    0.0000 C   0  0  0
    2.1000    3.6373    0.0000 O   0  0  0
    2.8000   -0.0000    0.0000 C   0  0  2
    4.2000   -0.0000    0.0000 O   0  0  0
    2.1000   -1.2124    0.0000 C   0  0  2
    2.8000   -2.4249    0.0000 O   0  0  0
    0.7000   -1.2124    0.0000 C   0  0  1
   -0.0000   -2.4249    0.0000 O   0  0  0
   -1.4000    2.4249    0.0000 C   0  0  1
    0.0000    2.4249    0.0000 O   0  0  0
   -2.1000    3.6373    0.0000 C   0  0  0
   -1.4000    4.8497    0.0000 O   0  0  0
  1  2  2
  2  3  1
  2  4  1
  4  5  1  6
  4  6  1
  6  7  1  6
  6  8  1
 10  9  1  6
 10 11  1
 11 12  1
 13 14  1
 12 13  1  6
 12 15  1
 15 16  1  6
 15 17  1
 17 18  1  6
 19 10  1
 17 19  1
 19 20  1  1
  8  9  1  1
  8 21  1
 21 22  1  6
 21 23  1
 23 24  1
M  END
> <ZINC_ID>
12405026

> <Docking_Score>
-26.952

> <Vendor>
ACROS

$$$$
C6H5NO4
  MOLSOFT 06181908472D

 11 11  0  0  0  0  0  0  0  0999 V2000
   -1.4000   -2.4249    0.0000 O   0  0  0
   -2.1000   -1.2124    0.0000 C   0  0  0
   -3.5000   -1.2124    0.0000 O   0  0  0
   -1.4000   -0.0000    0.0000 C   0  0  0
   -0.0000   -0.0000    0.0000 N   0  0  0
    0.8229    1.1326    0.0000 C   0  0  0
    0.3903    2.4641    0.0000 O   0  0  0
    2.1544    0.7000    0.0000 C   0  0  0
    2.1544   -0.7000    0.0000 C   0  0  0
    0.8229   -1.1326    0.0000 C   0  0  0
    0.3903   -2.4641    0.0000 O   0  0  0
  1  2  2
  2  3  1
  2  4  1
  4  5  1
  5  6  1
  6  7  2
  6  8  1
  8  9  2
 10  5  1
  9 10  1
 10 11  2
M  END
> <ZINC_ID>
1510914

> <Docking_Score>
-26.946

> <Vendor>
Enamine

$$$$
C10H10N2O3S
  MOLSOFT 06181908472D

 16 17  0  0  0  0  0  0  0  0999 V2000
   -2.1000   -1.2124    0.0000 C   0  0  0
   -1.4000   -0.0000    0.0000 C   0  0  0
   -0.0000   -0.0000    0.0000 C   0  0  0
    0.8229    1.1326    0.0000 C   0  0  0
    2.1544    0.7000    0.0000 C   0  0  0
    3.3668    1.4000    0.0000 C   0  0  0
    3.3668    2.8000    0.0000 O   0  0  0
    4.5792    0.7000    0.0000 N   0  0  0
    5.7917    1.4000    0.0000 C   0  0  0
    5.7917    2.8000    0.0000 C   0  0  0
    4.5792    3.5000    0.0000 O   0  0  0
    7.0041    3.5000    0.0000 O   0  0  0
    4.5792   -0.7000    0.0000 C   0  0  0
    3.3668   -1.4000    0.0000 N   0  0  0
    2.1544   -0.7000    0.0000 C   0  0  0
    0.8229   -1.1326    0.0000 S   0  0  0
  1  2  1
  2  3  1
  3  4  2
  4  5  1
  5  6  1
  6  7  2
  6  8  1
  9 10  1
 10 11  2
 10 12  1
  8  9  1
  8 13  1
 13 14  2
 15  5  2
 14 15  1
 16  3  1
 15 16  1
M  END
> <ZINC_ID>
1944806

> <Docking_Score>
-26.919

> <Vendor>
Aksci

$$$$
C15H29NO3
  MOLSOFT 06181908472D

 19 18  0  0  0  0  0  0  0  0999 V2000
    1.4000    0.0000    0.0000 C   0  0  0
    2.1000    1.2124    0.0000 C   0  0  0
    3.5000    1.2124    0.0000 C   0  0  0
    4.2000    2.4249    0.0000 C   0  0  0
    5.6000    2.4249    0.0000 C   0  0  0
    6.3000    3.6373    0.0000 C   0  0  0
    7.7000    3.6373    0.0000 C   0  0  0
    8.4000    4.8497    0.0000 C   0  0  0
    9.8000    4.8497    0.0000 C   0  0  0
   10.5000    6.0622    0.0000 C   0  0  0
   11.9000    6.0622    0.0000 C   0  0  0
   12.6000    7.2746    0.0000 C   0  0  0
   11.9000    8.4870    0.0000 O   0  0  0
   14.0000    7.2746    0.0000 N   0  0  0
   14.7000    6.0622    0.0000 C   0  0  0
   14.7000    8.4870    0.0000 C   0  0  0
   16.1000    8.4870    0.0000 C   0  0  0
   16.8000    7.2746    0.0000 O   0  0  0
   16.8000    9.6995    0.0000 O   0  0  0
  1  2  1
  2  3  1
  3  4  1
  4  5  1
  5  6  1
  6  7  1
  7  8  1
  8  9  1
  9 10  1
 10 11  1
 11 12  1
 12 13  2
 12 14  1
 14 15  1
 14 16  1
 16 17  1
 17 18  2
 17 19  1
M  END
> <ZINC_ID>
38141468

> <Docking_Score>
-26.919

> <Vendor>
ACROS

$$$$
C8H15NO4
  MOLSOFT 06181908472D

 13 12  0  0  1  0  0  0  0  0999 V2000
    1.4000    0.0000    0.0000 N   0  0  0
    2.1000    1.2124    0.0000 C   0  0  1
    3.5000    1.2124    0.0000 C   0  0  0
    4.2000    2.4249    0.0000 C   0  0  0
    5.6000    2.4249    0.0000 C   0  0  0
    6.3000    3.6373    0.0000 C   0  0  0
    7.7000    3.6373    0.0000 C   0  0  0
    8.4000    4.8497    0.0000 C   0  0  0
    7.7000    6.0622    0.0000 O   0  0  0
    9.8000    4.8497    0.0000 O   0  0  0
    1.4000    2.4249    0.0000 C   0  0  0
    2.1000    3.6373    0.0000 O   0  0  0
   -0.0000    2.4249    0.0000 O   0  0  0
  2  1  1  6
  3  4  1
  4  5  1
  5  6  1
  6  7  1
  7  8  1
  8  9  2
  8 10  1
  2  3  1
  2 11  1
 11 12  2
 11 13  1
M  END
> <ZINC_ID>
2384796

> <Docking_Score>
-26.911

> <Vendor>
Combiblocks

$$$$
C4H8O5
  MOLSOFT 06181908472D

  9  8  0  0  1  0  0  0  0  0999 V2000
    1.4000    0.0000    0.0000 O   0  0  0
    2.1000    1.2124    0.0000 C   0  0  0
    1.4000    2.4249    0.0000 O   0  0  0
    3.5000    1.2124    0.0000 C   0  0  2
    4.2000    0.0000    0.0000 O   0  0  0
    4.2000    2.4249    0.0000 C   0  0  1
    3.5000    3.6373    0.0000 O   0  0  0
    5.6000    2.4249    0.0000 C   0  0  0
    6.3000    3.6373    0.0000 O   0  0  0
  1  2  2
  2  3  1
  2  4  1
  4  5  1  1
  4  6  1
  6  7  1  1
  6  8  1
  8  9  1
M  END
> <ZINC_ID>
901061

> <Docking_Score>
-26.895

> <Vendor>
Enamine

$$$$
C7H12N2O5
  MOLSOFT 06181908472D

 14 13  0  0  1  0  0  0  0  0999 V2000
    1.4000    0.0000    0.0000 N   0  0  0
    2.1000    1.2124    0.0000 C   0  0  1
    1.4000    2.4249    0.0000 C   0  0  0
   -0.0000    2.4249    0.0000 C   0  0  0
   -0.7000    3.6373    0.0000 C   0  0  0
   -0.0000    4.8497    0.0000 O   0  0  0
   -2.1000    3.6373    0.0000 O   0  0  0
    3.5000    1.2124    0.0000 C   0  0  0
    4.2000    0.0000    0.0000 O   0  0  0
    4.2000    2.4249    0.0000 N   0  0  0
    5.6000    2.4249    0.0000 C   0  0  0
    6.3000    3.6373    0.0000 C   0  0  0
    5.6000    4.8497    0.0000 O   0  0  0
    7.7000    3.6373    0.0000 O   0  0  0
  2  1  1  1
  3  4  1
  4  5  1
  5  6  2
  5  7  1
  2  3  1
  2  8  1
  8  9  2
  8 10  1
 10 11  1
 11 12  1
 12 13  2
 12 14  1
M  END
> <ZINC_ID>
1731776

> <Docking_Score>
-26.857

> <Vendor>
Sialbb

$$$$
C7H9NO4S
  MOLSOFT 06181908472D

 13 13  0  0  1  0  0  0  0  0999 V2000
   -2.1000   -1.2124    0.0000 C   0  0  0
   -1.4000   -0.0000    0.0000 C   0  0  0
   -0.0000   -0.0000    0.0000 N   0  0  0
    0.8229    1.1326    0.0000 C   0  0  0
    0.3903    2.4641    0.0000 O   0  0  0
    2.1544    0.7000    0.0000 S   0  0  0
    2.1544   -0.7000    0.0000 C   0  0  2
    3.2870   -1.5229    0.0000 C   0  0  0
    4.5660   -0.9535    0.0000 C   0  0  0
    4.7123    0.4389    0.0000 O   0  0  0
    5.6986   -1.7764    0.0000 O   0  0  0
    0.8229   -1.1326    0.0000 C   0  0  0
    0.3903   -2.4641    0.0000 O   0  0  0
  1  2  1
  2  3  1
  3  4  1
  4  5  2
  4  6  1
  6  7  1
  8  9  1
  9 10  2
  9 11  1
  7  8  1  6
 12  3  1
  7 12  1
 12 13  2
M  END
> <ZINC_ID>
1239577

> <Docking_Score>
-26.849

> <Vendor>
Sialbb

$$$$
C7H14N2O4S
  MOLSOFT 06181908472D

 14 13  0  0  1  0  0  0  0  0999 V2000
    1.4000    0.0000    0.0000 N   0  0  0
    2.1000    1.2124    0.0000 C   0  0  1
    3.5000    1.2124    0.0000 C   0  0  0
    4.2000    2.4249    0.0000 C   0  0  0
    5.6000    2.4249    0.0000 S   0  0  0
    6.3000    3.6373    0.0000 C   0  0  0
    7.7000    3.6373    0.0000 C   0  0  2
    8.4000    2.4249    0.0000 N   0  0  0
    8.4000    4.8497    0.0000 C   0  0  0
    7.7000    6.0622    0.0000 O   0  0  0
    9.8000    4.8497    0.0000 O   0  0  0
    1.4000    2.4249    0.0000 C   0  0  0
    2.1000    3.6373    0.0000 O   0  0  0
   -0.0000    2.4249    0.0000 O   0  0  0
  2  1  1  6
  3  4  1
  4  5  1
  5  6  1
  6  7  1
  7  8  1  1
  7  9  1
  9 10  2
  9 11  1
  2  3  1
  2 12  1
 12 13  2
 12 14  1
M  END
> <ZINC_ID>
1532680

> <Docking_Score>
-26.84

> <Vendor>
Aksci

$$$$
C9H18N2O4
  MOLSOFT 06181908472D

 15 14  0  0  0  0  0  0  0  0999 V2000
    1.4000    0.0000    0.0000 N   0  0  0
    2.1000    1.2124    0.0000 C   0  0  1
    3.5000    1.2124    0.0000 C   0  0  0
    4.2000    2.4249    0.0000 C   0  0  0
    5.6000    2.4249    0.0000 C   0  0  0
    6.3000    3.6373    0.0000 C   0  0  0
    7.7000    3.6373    0.0000 C   0  0  0
    8.4000    4.8497    0.0000 C   0  0  1
    7.7000    6.0622    0.0000 N   0  0  0
    9.8000    4.8497    0.0000 C   0  0  0
   10.5000    3.6373    0.0000 O   0  0  0
   10.5000    6.0622    0.0000 O   0  0  0
    1.4000    2.4249    0.0000 C   0  0  0
    2.1000    3.6373    0.0000 O   0  0  0
   -0.0000    2.4249    0.0000 O   0  0  0
  2  1  1  6
  3  4  1
  4  5  1
  5  6  1
  6  7  1
  7  8  1
  8  9  1  1
  8 10  1
 10 11  2
 10 12  1
  2  3  1
  2 13  1
 13 14  2
 13 15  1
M  END
> <ZINC_ID>
1720128

> <Docking_Score>
-26.837

> <Vendor>
Aksci

$$$$
C8H10N2O3
  MOLSOFT 06181908472D

 13 13  0  0  0  0  0  0  0  0999 V2000
   -1.4000    0.0000    0.0000 C   0  0  0
    0.0000    0.0000    0.0000 C   0  0  0
    0.7000    1.2124    0.0000 C   0  0  0
    2.1000    1.2124    0.0000 C   0  0  0
    2.8000    2.4249    0.0000 C   0  0  0
    2.8000   -0.0000    0.0000 N   0  0  0
    4.2000   -0.0000    0.0000 C   0  0  0
    4.9000    1.2124    0.0000 C   0  0  0
    4.2000    2.4249    0.0000 O   0  0  0
    6.3000    1.2124    0.0000 O   0  0  0
    2.1000   -1.2124    0.0000 C   0  0  0
    2.8000   -2.4249    0.0000 O   0  0  0
    0.7000   -1.2124    0.0000 N   0  0  0
  1  2  1
  2  3  4
  3  4  4
  4  5  1
  4  6  4
  7  8  1
  8  9  2
  8 10  1
  6  7  1
  6 11  4
 11 12  2
 13  2  4
 11 13  4
M  END
> <ZINC_ID>
189443

> <Docking_Score>
-26.777

> <Vendor>
Enamine

$$$$
C7H11NO3
  MOLSOFT 06181908472D

 11 11  0  0  0  0  0  0  0  0999 V2000
   -4.2000   -0.0000    0.0000 O   0  0  0
   -3.5000   -1.2124    0.0000 C   0  0  0
   -4.2000   -2.4249    0.0000 O   0  0  0
   -2.1000   -1.2124    0.0000 C   0  0  0
   -1.4000   -0.0000    0.0000 C   0  0  0
   -0.0000   -0.0000    0.0000 N   0  0  0
    0.8229    1.1326    0.0000 C   0  0  0
    2.1544    0.7000    0.0000 C   0  0  0
    2.1544   -0.7000    0.0000 C   0  0  0
    0.8229   -1.1326    0.0000 C   0  0  0
    0.3903   -2.4641    0.0000 O   0  0  0
  1  2  2
  2  3  1
  2  4  1
  4  5  1
  5  6  1
  6  7  1
  7  8  1
  8  9  1
 10  6  1
  9 10  1
 10 11  2
M  END
> <ZINC_ID>
4298376

> <Docking_Score>
-26.766

> <Vendor>
Enamine

$$$$
C12H21N3O8
  MOLSOFT 06181908472D

 23 23  0  0  1  0  0  0  0  0999 V2000
   -1.4000   -2.4249    0.0000 C   0  0  0
   -2.1000   -1.2124    0.0000 C   0  0  0
   -3.5000   -1.2124    0.0000 O   0  0  0
   -1.4000    0.0000    0.0000 N   0  0  0
    0.0000    0.0000    0.0000 C   0  0  1
    0.7000    1.2124    0.0000 C   0  0  2
   -0.0000    2.4249    0.0000 N   0  0  0
   -1.4000    2.4249    0.0000 C   0  0  0
   -2.1000    1.2124    0.0000 O   0  0  0
   -2.1000    3.6373    0.0000 C   0  0  0
   -3.5000    3.6373    0.0000 C   0  0  2
   -4.2000    2.4249    0.0000 N   0  0  0
   -4.2000    4.8497    0.0000 C   0  0  0
   -3.5000    6.0622    0.0000 O   0  0  0
   -5.6000    4.8497    0.0000 O   0  0  0
    2.1000    1.2124    0.0000 O   0  0  0
    2.8000   -0.0000    0.0000 C   0  0  2
    4.2000   -0.0000    0.0000 C   0  0  0
    4.9000    1.2124    0.0000 O   0  0  0
    2.1000   -1.2124    0.0000 C   0  0  1
    2.8000   -2.4249    0.0000 O   0  0  0
    0.7000   -1.2124    0.0000 C   0  0  2
   -0.0000   -2.4249    0.0000 O   0  0  0
  1  2  1
  2  3  2
  2  4  1
  5  4  1  1
  5  6  1
  7  8  1
  8  9  2
  8 10  1
 10 11  1
 11 12  1  6
 11 13  1
 13 14  2
 13 15  1
  6  7  1  6
  6 16  1
 16 17  1
 18 19  1
 17 18  1  6
 17 20  1
 20 21  1  1
 22  5  1
 20 22  1
 22 23  1  6
M  END
> <ZINC_ID>
4096453

> <Docking_Score>
-26.739

> <Vendor>
Chemimprex

$$$$
C9H17NO4
  MOLSOFT 06181908472D

 14 13  0  0  1  0  0  0  0  0999 V2000
    1.4000    0.0000    0.0000 C   0  0  0
    2.1000    1.2124    0.0000 C   0  0  0
    3.5000    1.2124    0.0000 C   0  0  0
    4.2000    2.4249    0.0000 C   0  0  0
    5.6000    2.4249    0.0000 C   0  0  1
    6.3000    3.6373    0.0000 C   0  0  0
    7.7000    3.6373    0.0000 C   0  0  2
    8.4000    2.4249    0.0000 N   0  0  0
    8.4000    4.8497    0.0000 C   0  0  0
    7.7000    6.0622    0.0000 O   0  0  0
    9.8000    4.8497    0.0000 O   0  0  0
    6.3000    1.2124    0.0000 C   0  0  0
    5.6000    0.0000    0.0000 O   0  0  0
    7.7000    1.2124    0.0000 O   0  0  0
  1  2  1
  2  3  1
  3  4  1
  5  4  1  1
  6  7  1
  7  8  1  1
  7  9  1
  9 10  2
  9 11  1
  5  6  1
  5 12  1
 12 13  2
 12 14  1
M  END
> <ZINC_ID>
12649087

> <Docking_Score>
-26.738

> <Vendor>
Combiblocks

$$$$
C4H8O5
  MOLSOFT 06181908472D

  9  8  0  0  1  0  0  0  0  0999 V2000
    1.4000    0.0000    0.0000 O   0  0  0
    2.1000    1.2124    0.0000 C   0  0  0
    1.4000    2.4249    0.0000 O   0  0  0
    3.5000    1.2124    0.0000 C   0  0  1
    4.2000    0.0000    0.0000 O   0  0  0
    4.2000    2.4249    0.0000 C   0  0  1
    3.5000    3.6373    0.0000 O   0  0  0
    5.6000    2.4249    0.0000 C   0  0  0
    6.3000    3.6373    0.0000 O   0  0  0
  1  2  2
  2  3  1
  2  4  1
  4  5  1  6
  4  6  1
  6  7  1  1
  6  8  1
  8  9  1
M  END
> <ZINC_ID>
901058

> <Docking_Score>
-26.724

> <Vendor>
Enamine

$$$$
C8H12N2O3
  MOLSOFT 06181908472D

 13 13  0  0  0  0  0  0  0  0999 V2000
   -1.4000    0.0000    0.0000 C   0  0  0
    0.0000    0.0000    0.0000 C   0  0  0
    0.7000    1.2124    0.0000 N   0  0  0
    2.1000    1.2124    0.0000 C   0  0  0
    2.8000    2.4249    0.0000 O   0  0  0
    2.8000   -0.0000    0.0000 C   0  0  0
    4.2000   -0.0000    0.0000 C   0  0  0
    4.9000    1.2124    0.0000 C   0  0  0
    4.2000    2.4249    0.0000 O   0  0  0
    6.3000    1.2124    0.0000 O   0  0  0
    2.1000   -1.2124    0.0000 C   0  0  0
    2.8000   -2.4249    0.0000 C   0  0  0
    0.7000   -1.2124    0.0000 N   0  0  0
  2  1  1
  2  3  1
  3  4  1
  4  5  2
  4  6  1
  7  8  1
  8  9  2
  8 10  1
  6  7  1
  6 11  2
 11 12  1
 13  2  1
 11 13  1
M  END
> <ZINC_ID>
5045421

> <Docking_Score>
-26.721

> <Vendor>
Enamine

$$$$
C7H12O3
  MOLSOFT 06181908472D

 10 10  0  0  0  0  0  0  0  0999 V2000
   -2.1000    1.2124    0.0000 O   0  0  0
   -1.4000    0.0000    0.0000 C   0  0  0
   -2.1000   -1.2124    0.0000 O   0  0  0
    0.0000    0.0000    0.0000 C   0  0  0
    0.7000    1.2124    0.0000 C   0  0  0
    2.1000    1.2124    0.0000 C   0  0  0
    2.8000   -0.0000    0.0000 C   0  0  0
    4.2000   -0.0000    0.0000 O   0  0  0
    2.1000   -1.2124    0.0000 C   0  0  0
    0.7000   -1.2124    0.0000 C   0  0  0
  1  2  2
  2  3  1
  2  4  1
  4  5  1
  5  6  1
  6  7  1
  7  8  1
  7  9  1
 10  4  1
  9 10  1
M  END
> <ZINC_ID>
8383223

> <Docking_Score>
-26.704

> <Vendor>
Combiblocks

$$$$
C8H8N2O5
  MOLSOFT 06181908472D

 15 15  0  0  0  0  0  0  0  0999 V2000
   -3.5000   -1.2124    0.0000 C   0  0  0
   -2.1000   -1.2124    0.0000 C   0  0  0
   -1.4000   -0.0000    0.0000 C   0  0  0
   -0.0000   -0.0000    0.0000 N   0  0  0
    0.8229    1.1326    0.0000 C   0  0  0
    0.3903    2.4641    0.0000 O   0  0  0
    2.1544    0.7000    0.0000 C   0  0  0
    3.2870    1.5229    0.0000 O   0  0  0
    2.1544   -0.7000    0.0000 N   0  0  0
    3.2870   -1.5229    0.0000 C   0  0  0
    4.5660   -0.9535    0.0000 C   0  0  0
    4.7123    0.4389    0.0000 O   0  0  0
    5.6986   -1.7764    0.0000 O   0  0  0
    0.8229   -1.1326    0.0000 C   0  0  0
    0.3903   -2.4641    0.0000 O   0  0  0
  1  2  2
  2  3  1
  3  4  1
  4  5  1
  5  6  2
  5  7  1
  7  8  2
  7  9  1
 10 11  1
 11 12  2
 11 13  1
  9 10  1
 14  4  1
  9 14  1
 14 15  2
M  END
> <ZINC_ID>
4205356

> <Docking_Score>
-26.67

> <Vendor>
Enamine

$$$$
C8H12N2O5S
  MOLSOFT 06181908472D

 16 16  0  0  1  0  0  0  0  0999 V2000
   -1.4000   -0.0000    0.0000 C   0  0  0
   -0.0000   -0.0000    0.0000 C   0  0  0
    0.8229    1.1326    0.0000 N   0  0  0
    2.1544    0.7000    0.0000 O   0  0  0
    2.1544   -0.7000    0.0000 C   0  0  0
    3.2870   -1.5229    0.0000 C   0  0  0
    0.8229   -1.1326    0.0000 C   0  0  0
    0.3903   -2.4641    0.0000 S   0  0  0
    1.7218   -2.8967    0.0000 O   0  0  0
   -0.9412   -2.0315    0.0000 O   0  0  0
   -0.0423   -3.7956    0.0000 N   0  0  0
    0.8944   -4.8360    0.0000 C   0  0  2
    2.2638   -4.5449    0.0000 C   0  0  0
    0.4618   -6.1675    0.0000 C   0  0  0
   -0.9076   -6.4585    0.0000 O   0  0  0
    1.3986   -7.2079    0.0000 O   0  0  0
  1  2  1
  2  3  2
  3  4  1
  4  5  1
  5  6  1
  7  2  1
  5  7  2
  7  8  1
  8  9  2
  8 10  2
  8 11  1
 11 12  1
 12 13  1  6
 12 14  1
 14 15  2
 14 16  1
M  END
> <ZINC_ID>
4218354

> <Docking_Score>
-26.66

> <Vendor>
Enamine

$$$$
C6H11NO4
  MOLSOFT 06181908472D

 11 10  0  0  1  0  0  0  0  0999 V2000
    1.4000    0.0000    0.0000 C   0  0  0
    2.1000    1.2124    0.0000 N   0  0  0
    3.5000    1.2124    0.0000 C   0  0  1
    4.2000    2.4249    0.0000 C   0  0  0
    5.6000    2.4249    0.0000 C   0  0  0
    6.3000    3.6373    0.0000 C   0  0  0
    5.6000    4.8497    0.0000 O   0  0  0
    7.7000    3.6373    0.0000 O   0  0  0
    4.2000    0.0000    0.0000 C   0  0  0
    3.5000   -1.2124    0.0000 O   0  0  0
    5.6000    0.0000    0.0000 O   0  0  0
  1  2  1
  2  3  1
  4  5  1
  5  6  1
  6  7  2
  6  8  1
  3  4  1  1
  3  9  1
  9 10  2
  9 11  1
M  END
> <ZINC_ID>
895472

> <Docking_Score>
-26.658

> <Vendor>
Chemimprex

$$$$
C9H8N2O3S
  MOLSOFT 06181908472D

 15 16  0  0  0  0  0  0  0  0999 V2000
   -1.4000   -0.0000    0.0000 C   0  0  0
   -0.0000   -0.0000    0.0000 C   0  0  0
    0.8229    1.1326    0.0000 C   0  0  0
    2.1544    0.7000    0.0000 C   0  0  0
    3.3668    1.4000    0.0000 C   0  0  0
    3.3668    2.8000    0.0000 O   0  0  0
    4.5792    0.7000    0.0000 N   0  0  0
    5.7917    1.4000    0.0000 C   0  0  0
    5.7917    2.8000    0.0000 C   0  0  0
    4.5792    3.5000    0.0000 O   0  0  0
    7.0041    3.5000    0.0000 O   0  0  0
    4.5792   -0.7000    0.0000 C   0  0  0
    3.3668   -1.4000    0.0000 N   0  0  0
    2.1544   -0.7000    0.0000 C   0  0  0
    0.8229   -1.1326    0.0000 S   0  0  0
  1  2  1
  2  3  2
  3  4  1
  4  5  1
  5  6  2
  5  7  1
  8  9  1
  9 10  2
  9 11  1
  7  8  1
  7 12  1
 12 13  2
 14  4  2
 13 14  1
 15  2  1
 14 15  1
M  END
> <ZINC_ID>
1281697

> <Docking_Score>
-26.654

> <Vendor>
Sialbb

$$$$
C6H11NO3
  MOLSOFT 06181908472D

 10  9  0  0  0  0  0  0  0  0999 V2000
    1.4000    0.0000    0.0000 C   0  0  0
    2.1000    1.2124    0.0000 C   0  0  0
    1.4000    2.4249    0.0000 O   0  0  0
    3.5000    1.2124    0.0000 N   0  0  0
    4.2000    0.0000    0.0000 C   0  0  0
    4.2000    2.4249    0.0000 C   0  0  0
    5.6000    2.4249    0.0000 C   0  0  0
    6.3000    3.6373    0.0000 C   0  0  0
    5.6000    4.8497    0.0000 O   0  0  0
    7.7000    3.6373    0.0000 O   0  0  0
  1  2  1
  2  3  2
  2  4  1
  4  5  1
  4  6  1
  6  7  1
  7  8  1
  8  9  2
  8 10  1
M  END
> <ZINC_ID>
153959

> <Docking_Score>
-26.633

> <Vendor>
Synquest

$$$$
C7H12N2O5
  MOLSOFT 06181908472D

 14 13  0  0  1  0  0  0  0  0999 V2000
    1.4000    0.0000    0.0000 C   0  0  0
    2.1000    1.2124    0.0000 C   0  0  2
    1.4000    2.4249    0.0000 N   0  0  0
    3.5000    1.2124    0.0000 C   0  0  0
    4.2000    0.0000    0.0000 O   0  0  0
    4.2000    2.4249    0.0000 N   0  0  0
    5.6000    2.4249    0.0000 C   0  0  1
    6.3000    3.6373    0.0000 C   0  0  0
    7.7000    3.6373    0.0000 C   0  0  0
    8.4000    2.4249    0.0000 O   0  0  0
    8.4000    4.8497    0.0000 O   0  0  0
    6.3000    1.2124    0.0000 C   0  0  0
    5.6000    0.0000    0.0000 O   0  0  0
    7.7000    1.2124    0.0000 O   0  0  0
  2  1  1  6
  2  3  1
  2  4  1
  4  5  2
  4  6  1
  6  7  1
  8  9  1
  9 10  2
  9 11  1
  7  8  1  1
  7 12  1
 12 13  2
 12 14  1
M  END
> <ZINC_ID>
1731782

> <Docking_Score>
-26.591

> <Vendor>
Aksci

$$$$
C9H12N2O6
  MOLSOFT 06181908472D

 17 17  0  0  1  0  0  0  0  0999 V2000
   -1.4000   -0.0000    0.0000 C   0  0  0
   -0.0000   -0.0000    0.0000 C   0  0  0
    0.8229    1.1326    0.0000 O   0  0  0
    2.1544    0.7000    0.0000 N   0  0  0
    2.1544   -0.7000    0.0000 C   0  0  0
    3.2870   -1.5229    0.0000 O   0  0  0
    4.5660   -0.9535    0.0000 C   0  0  0
    5.6986   -1.7764    0.0000 C   0  0  0
    5.5523   -3.1687    0.0000 O   0  0  0
    6.9776   -1.2069    0.0000 O   0  0  0
    0.8229   -1.1326    0.0000 C   0  0  0
    0.3903   -2.4641    0.0000 C   0  0  0
    1.3271   -3.5045    0.0000 C   0  0  1
    2.6965   -3.2134    0.0000 N   0  0  0
    0.8944   -4.8360    0.0000 C   0  0  0
   -0.4750   -5.1271    0.0000 O   0  0  0
    1.8312   -5.8764    0.0000 O   0  0  0
  1  2  1
  2  3  1
  3  4  1
  4  5  2
  6  7  1
  7  8  1
  8  9  2
  8 10  1
  5  6  1
 11  2  2
  5 11  1
 11 12  1
 12 13  1
 13 14  1  1
 13 15  1
 15 16  2
 15 17  1
M  END
> <ZINC_ID>
4293721

> <Docking_Score>
-26.564

> <Vendor>
Synquest

$$$$
C5H7NO3S
  MOLSOFT 06181908472D

 10 10  0  0  0  0  0  0  0  0999 V2000
   -1.4000   -2.4249    0.0000 O   0  0  0
   -2.1000   -1.2124    0.0000 C   0  0  0
   -3.5000   -1.2124    0.0000 O   0  0  0
   -1.4000   -0.0000    0.0000 C   0  0  0
   -0.0000   -0.0000    0.0000 N   0  0  0
    0.8229    1.1326    0.0000 C   0  0  0
    2.1544    0.7000    0.0000 S   0  0  0
    2.1544   -0.7000    0.0000 C   0  0  0
    0.8229   -1.1326    0.0000 C   0  0  0
    0.3903   -2.4641    0.0000 O   0  0  0
  1  2  2
  2  3  1
  2  4  1
  4  5  1
  5  6  1
  6  7  1
  7  8  1
  9  5  1
  8  9  1
  9 10  2
M  END
> <ZINC_ID>
4200366

> <Docking_Score>
-26.563

> <Vendor>
Enamine

$$$$
C5H10O4S
  MOLSOFT 06181908472D

 10  9  0  0  0  0  0  0  0  0999 V2000
    1.4000    0.0000    0.0000 C   0  0  0
    2.1000    1.2124    0.0000 S   0  0  0
    3.3124    0.5124    0.0000 O   0  0  0
    0.8876    1.9124    0.0000 O   0  0  0
    2.8000    2.4249    0.0000 C   0  0  0
    4.2000    2.4249    0.0000 C   0  0  0
    4.9000    3.6373    0.0000 C   0  0  0
    6.3000    3.6373    0.0000 C   0  0  0
    7.0000    2.4249    0.0000 O   0  0  0
    7.0000    4.8497    0.0000 O   0  0  0
  1  2  1
  2  3  2
  2  4  2
  2  5  1
  5  6  1
  6  7  1
  7  8  1
  8  9  2
  8 10  1
M  END
> <ZINC_ID>
13512916

> <Docking_Score>
-26.501

> <Vendor>
Enamine

$$$$
C6H11N3O4
  MOLSOFT 06181908472D

 13 12  0  0  1  0  0  0  0  0999 V2000
    1.4000    0.0000    0.0000 N   0  0  0
    2.1000    1.2124    0.0000 C   0  0  0
    1.4000    2.4249    0.0000 N   0  0  0
    3.5000    1.2124    0.0000 N   0  0  0
    4.2000    2.4249    0.0000 C   0  0  1
    5.6000    2.4249    0.0000 C   0  0  0
    6.3000    3.6373    0.0000 C   0  0  0
    7.7000    3.6373    0.0000 C   0  0  0
    8.4000    2.4249    0.0000 O   0  0  0
    8.4000    4.8497    0.0000 O   0  0  0
    3.5000    3.6373    0.0000 C   0  0  0
    4.2000    4.8497    0.0000 O   0  0  0
    2.1000    3.6373    0.0000 O   0  0  0
  1  2  2
  2  3  1
  2  4  1
  4  5  1
  6  7  1
  7  8  1
  8  9  2
  8 10  1
  5  6  1  6
  5 11  1
 11 12  2
 11 13  1
M  END
> <ZINC_ID>
1529598

> <Docking_Score>
-26.5

> <Vendor>
Combiblocks

$$$$
C7H9N3O4S
  MOLSOFT 06181908472D

 15 15  0  0  0  0  0  0  0  0999 V2000
   -1.4000    0.0000    0.0000 C   0  0  0
    0.0000    0.0000    0.0000 N   0  0  0
    0.7000    1.2124    0.0000 N   0  0  0
    2.1000    1.2124    0.0000 C   0  0  0
    2.8000    2.4249    0.0000 S   0  0  0
    2.1000    3.6373    0.0000 C   0  0  0
    2.8000    4.8497    0.0000 C   0  0  0
    4.2000    4.8497    0.0000 O   0  0  0
    2.1000    6.0622    0.0000 O   0  0  0
    2.8000   -0.0000    0.0000 C   0  0  0
    4.2000   -0.0000    0.0000 O   0  0  0
    2.1000   -1.2124    0.0000 N   0  0  0
    2.8000   -2.4249    0.0000 C   0  0  0
    0.7000   -1.2124    0.0000 C   0  0  0
   -0.0000   -2.4249    0.0000 O   0  0  0
  1  2  1
  2  3  1
  3  4  2
  5  6  1
  6  7  1
  7  8  2
  7  9  1
  4  5  1
  4 10  1
 10 11  2
 10 12  1
 12 13  1
 14  2  1
 12 14  1
 14 15  2
M  END
> <ZINC_ID>
4218575

> <Docking_Score>
-26.492

> <Vendor>
Enamine

$$$$
C4H8O4S2
  MOLSOFT 06181908472D

 10  9  0  0  0  0  0  0  0  0999 V2000
    1.4000    0.0000    0.0000 C   0  0  0
    2.1000    1.2124    0.0000 S   0  0  0
    3.3124    0.5124    0.0000 O   0  0  0
    0.8876    1.9124    0.0000 O   0  0  0
    2.8000    2.4249    0.0000 S   0  0  0
    4.2000    2.4249    0.0000 C   0  0  0
    4.9000    3.6373    0.0000 C   0  0  0
    6.3000    3.6373    0.0000 C   0  0  0
    7.0000    2.4249    0.0000 O   0  0  0
    7.0000    4.8497    0.0000 O   0  0  0
  1  2  1
  2  3  2
  2  4  2
  2  5  1
  5  6  1
  6  7  1
  7  8  1
  8  9  2
  8 10  1
M  END
> <ZINC_ID>
2569528

> <Docking_Score>
-26.486

> <Vendor>
Synquest

$$$$
C5H7NO4
  MOLSOFT 06181908472D

 10 10  0  0  0  0  0  0  0  0999 V2000
   -1.4000   -2.4249    0.0000 O   0  0  0
   -2.1000   -1.2124    0.0000 C   0  0  0
   -3.5000   -1.2124    0.0000 O   0  0  0
   -1.4000   -0.0000    0.0000 C   0  0  0
   -0.0000   -0.0000    0.0000 N   0  0  0
    0.8229    1.1326    0.0000 C   0  0  0
    2.1544    0.7000    0.0000 C   0  0  0
    2.1544   -0.7000    0.0000 O   0  0  0
    0.8229   -1.1326    0.0000 C   0  0  0
    0.3903   -2.4641    0.0000 O   0  0  0
  1  2  2
  2  3  1
  2  4  1
  4  5  1
  5  6  1
  6  7  1
  7  8  1
  9  5  1
  8  9  1
  9 10  2
M  END
> <ZINC_ID>
16124137

> <Docking_Score>
-26.474

> <Vendor>
Combiblocks

$$$$
C5H11NO4S
  MOLSOFT 06181908472D

 11 10  0  0  0  0  0  0  0  0999 V2000
    1.4000    0.0000    0.0000 C   0  0  0
    2.1000    1.2124    0.0000 C   0  0  0
    3.5000    1.2124    0.0000 S   0  0  0
    3.5000    2.6124    0.0000 O   0  0  0
    3.5000   -0.1876    0.0000 O   0  0  0
    4.9000    1.2124    0.0000 N   0  0  0
    5.6000    2.4249    0.0000 C   0  0  0
    7.0000    2.4249    0.0000 C   0  0  0
    7.7000    3.6373    0.0000 C   0  0  0
    7.0000    4.8497    0.0000 O   0  0  0
    9.1000    3.6373    0.0000 O   0  0  0
  1  2  1
  2  3  1
  3  4  2
  3  5  2
  3  6  1
  6  7  1
  7  8  1
  8  9  1
  9 10  2
  9 11  1
M  END
> <ZINC_ID>
11891726

> <Docking_Score>
-26.472

> <Vendor>
Enamine

$$$$
C5H7NO3
  MOLSOFT 06181908472D

  9  9  0  0  1  0  0  0  0  0999 V2000
   -1.4000   -0.0000    0.0000 C   0  0  0
   -0.0000   -0.0000    0.0000 C   0  0  0
    0.8229    1.1326    0.0000 N   0  0  0
    2.1544    0.7000    0.0000 O   0  0  0
    2.1544   -0.7000    0.0000 C   0  0  1
    3.2870   -1.5229    0.0000 C   0  0  0
    3.1407   -2.9152    0.0000 O   0  0  0
    4.5660   -0.9535    0.0000 O   0  0  0
    0.8229   -1.1326    0.0000 C   0  0  0
  1  2  1
  2  3  2
  3  4  1
  4  5  1
  6  7  2
  6  8  1
  5  6  1  1
  9  2  1
  5  9  1
M  END
> <ZINC_ID>
13483711

> <Docking_Score>
-26.446

> <Vendor>
Enamine

$$$$
C5H9NO5
  MOLSOFT 06181908472D

 11 10  0  0  1  0  0  0  0  0999 V2000
    1.4000    0.0000    0.0000 N   0  0  0
    2.1000    1.2124    0.0000 C   0  0  1
    3.5000    1.2124    0.0000 C   0  0  0
    4.2000    2.4249    0.0000 C   0  0  2
    3.5000    3.6373    0.0000 O   0  0  0
    5.6000    2.4249    0.0000 C   0  0  0
    6.3000    1.2124    0.0000 O   0  0  0
    6.3000    3.6373    0.0000 O   0  0  0
    1.4000    2.4249    0.0000 C   0  0  0
    2.1000    3.6373    0.0000 O   0  0  0
   -0.0000    2.4249    0.0000 O   0  0  0
  2  1  1  6
  3  4  1
  4  5  1  6
  4  6  1
  6  7  2
  6  8  1
  2  3  1
  2  9  1
  9 10  2
  9 11  1
M  END
> <ZINC_ID>
901639

> <Docking_Score>
-26.444

> <Vendor>
Combiblocks

$$$$
C7H10N2O3S
  MOLSOFT 06181908472D

 13 13  0  0  1  0  0  0  0  0999 V2000
   -0.7000    1.2124    0.0000 C   0  0  0
    0.0000   -0.0000    0.0000 N   0  0  0
    1.4000   -0.0000    0.0000 C   0  0  0
    2.2229    1.1326    0.0000 S   0  0  0
    3.5544    0.7000    0.0000 C   0  0  2
    4.6870    1.5229    0.0000 C   0  0  0
    4.5407    2.9152    0.0000 C   0  0  0
    3.2617    3.4847    0.0000 O   0  0  0
    5.6733    3.7381    0.0000 O   0  0  0
    3.5544   -0.7000    0.0000 C   0  0  0
    4.6870   -1.5229    0.0000 O   0  0  0
    2.2229   -1.1326    0.0000 N   0  0  0
    1.7903   -2.4641    0.0000 C   0  0  0
  1  2  1
  2  3  2
  3  4  1
  4  5  1
  6  7  1
  7  8  2
  7  9  1
  5  6  1  6
  5 10  1
 10 11  2
 12  3  1
 10 12  1
 12 13  1
M  END
> <ZINC_ID>
12367499

> <Docking_Score>
-26.421

> <Vendor>
Synquest

$$$$
C6H11NO4
  MOLSOFT 06181908472D

 11 10  0  0  1  0  0  0  0  0999 V2000
    1.4000    0.0000    0.0000 C   0  0  0
    2.1000    1.2124    0.0000 C   0  0  2
    3.5000    1.2124    0.0000 C   0  0  0
    4.2000    2.4249    0.0000 C   0  0  2
    3.5000    3.6373    0.0000 N   0  0  0
    5.6000    2.4249    0.0000 C   0  0  0
    6.3000    1.2124    0.0000 O   0  0  0
    6.3000    3.6373    0.0000 O   0  0  0
    1.4000    2.4249    0.0000 C   0  0  0
    2.1000    3.6373    0.0000 O   0  0  0
   -0.0000    2.4249    0.0000 O   0  0  0
  2  1  1  1
  3  4  1
  4  5  1  6
  4  6  1
  6  7  2
  6  8  1
  2  3  1
  2  9  1
  9 10  2
  9 11  1
M  END
> <ZINC_ID>
896091

> <Docking_Score>
-26.418

> <Vendor>
Sialbb

$$$$
C8H6O4
  MOLSOFT 06181908472D

 12 12  0  0  0  0  0  0  0  0999 V2000
   -3.5000   -3.6373    0.0000 O   0  0  0
   -4.2000   -2.4249    0.0000 C   0  0  0
   -5.6000   -2.4249    0.0000 O   0  0  0
   -3.5000   -1.2124    0.0000 C   0  0  0
   -4.2000   -0.0000    0.0000 O   0  0  0
   -2.1000   -1.2124    0.0000 C   0  0  0
   -1.4000   -0.0000    0.0000 C   0  0  0
   -0.0000   -0.0000    0.0000 C   0  0  0
    0.8229    1.1326    0.0000 C   0  0  0
    2.1544    0.7000    0.0000 C   0  0  0
    2.1544   -0.7000    0.0000 C   0  0  0
    0.8229   -1.1326    0.0000 O   0  0  0
  1  2  2
  2  3  1
  2  4  1
  4  5  2
  4  6  1
  6  7  2
  7  8  1
  8  9  2
  9 10  1
 10 11  2
 12  8  1
 11 12  1
M  END
> <ZINC_ID>
1691346

> <Docking_Score>
-26.412

> <Vendor>
Synquest

$$$$
C3H4O4
  MOLSOFT 06181908472D

  7  6  0  0  0  0  0  0  0  0999 V2000
    1.4000    0.0000    0.0000 O   0  0  0
    2.1000    1.2124    0.0000 C   0  0  0
    1.4000    2.4249    0.0000 O   0  0  0
    3.5000    1.2124    0.0000 C   0  0  0
    4.2000    0.0000    0.0000 O   0  0  0
    4.2000    2.4249    0.0000 C   0  0  0
    5.6000    2.4249    0.0000 O   0  0  0
  1  2  2
  2  3  1
  2  4  1
  4  5  2
  4  6  1
  6  7  1
M  END
> <ZINC_ID>
1532558

> <Docking_Score>
-26.41

> <Vendor>
Sialbb

$$$$
C6H13NO8S
  MOLSOFT 06181908472D

 16 16  0  0  1  0  0  0  0  0999 V2000
   -1.4000    0.0000    0.0000 N   0  0  0
    0.0000    0.0000    0.0000 C   0  0  1
    0.7000    1.2124    0.0000 C   0  0  2
   -0.0000    2.4249    0.0000 O   0  0  0
    2.1000    1.2124    0.0000 O   0  0  0
    2.8000   -0.0000    0.0000 C   0  0  2
    4.2000   -0.0000    0.0000 C   0  0  0
    4.9000    1.2124    0.0000 O   0  0  0
    6.3000    1.2124    0.0000 S   0  0  0
    6.3000    2.6124    0.0000 O   0  0  0
    6.3000   -0.1876    0.0000 O   0  0  0
    7.7000    1.2124    0.0000 O   0  0  0
    2.1000   -1.2124    0.0000 C   0  0  1
    2.8000   -2.4249    0.0000 O   0  0  0
    0.7000   -1.2124    0.0000 C   0  0  2
   -0.0000   -2.4249    0.0000 O   0  0  0
  2  1  1  1
  2  3  1
  3  4  1  6
  3  5  1
  5  6  1
  7  8  1
  8  9  1
  9 10  2
  9 11  2
  9 12  1
  6  7  1  6
  6 13  1
 13 14  1  1
 15  2  1
 13 15  1
 15 16  1  6
M  END
> <ZINC_ID>
5178949

> <Docking_Score>
-26.409

> <Vendor>
Chemimprex

$$$$
C7H10O3
  MOLSOFT 06181908472D

 10 10  0  0  0  0  0  0  0  0999 V2000
   -3.5000   -3.6373    0.0000 O   0  0  0
   -4.2000   -2.4249    0.0000 C   0  0  0
   -5.6000   -2.4249    0.0000 O   0  0  0
   -3.5000   -1.2124    0.0000 C   0  0  0
   -2.1000   -1.2124    0.0000 C   0  0  0
   -1.4000   -0.0000    0.0000 C   0  0  0
   -2.1000    1.2124    0.0000 O   0  0  0
    0.0000    0.0000    0.0000 C   0  0  0
    1.2124    0.7000    0.0000 C   0  0  0
    1.2124   -0.7000    0.0000 C   0  0  0
  1  2  2
  2  3  1
  2  4  1
  4  5  1
  5  6  1
  6  7  2
  6  8  1
  8  9  1
 10  8  1
  9 10  1
M  END
> <ZINC_ID>
2378778

> <Docking_Score>
-26.386

> <Vendor>
Alfa

$$$$
C11H15NO4
  MOLSOFT 06181908472D

 16 17  0  0  1  0  0  0  0  0999 V2000
   -2.1000    1.2124    0.0000 C   0  0  0
   -1.4000   -0.0000    0.0000 C   0  0  2
   -2.1000   -1.2124    0.0000 C   0  0  0
   -1.4000   -2.4249    0.0000 O   0  0  0
   -3.5000   -1.2124    0.0000 O   0  0  0
   -0.0000   -0.0000    0.0000 N   0  0  0
    0.8229    1.1326    0.0000 C   0  0  0
    0.3903    2.4641    0.0000 O   0  0  0
    2.1544    0.7000    0.0000 C   0  0  1
    3.3668    1.4000    0.0000 C   0  0  0
    4.5792    0.7000    0.0000 C   0  0  0
    4.5792   -0.7000    0.0000 C   0  0  0
    3.3668   -1.4000    0.0000 C   0  0  0
    2.1544   -0.7000    0.0000 C   0  0  2
    0.8229   -1.1326    0.0000 C   0  0  0
    0.3903   -2.4641    0.0000 O   0  0  0
  2  1  1  1
  3  4  2
  3  5  1
  2  3  1
  2  6  1
  6  7  1
  7  8  2
  7  9  1
  9 10  1  1
 10 11  1
 11 12  1
 12 13  1
 14  9  1
 14 13  1  6
 15  6  1
 14 15  1
 15 16  2
M  END
> <ZINC_ID>
3886438

> <Docking_Score>
-26.376

> <Vendor>
Enamine

$$$$
C6H10O3
  MOLSOFT 06181908472D

  9  8  0  0  0  0  0  0  0  0999 V2000
    1.4000    0.0000    0.0000 C   0  0  0
    2.1000    1.2124    0.0000 C   0  0  0
    1.4000    2.4249    0.0000 O   0  0  0
    3.5000    1.2124    0.0000 C   0  0  0
    4.2000    2.4249    0.0000 C   0  0  0
    5.6000    2.4249    0.0000 C   0  0  0
    6.3000    3.6373    0.0000 C   0  0  0
    5.6000    4.8497    0.0000 O   0  0  0
    7.7000    3.6373    0.0000 O   0  0  0
  1  2  1
  2  3  2
  2  4  1
  4  5  1
  5  6  1
  6  7  1
  7  8  2
  7  9  1
M  END
> <ZINC_ID>
901275

> <Docking_Score>
-26.354

> <Vendor>
Aksci

$$$$
C3H7NO6S
  MOLSOFT 06181908472D

 11 10  0  0  1  0  0  0  0  0999 V2000
    1.4000    0.0000    0.0000 N   0  0  0
    2.1000    1.2124    0.0000 C   0  0  1
    3.5000    1.2124    0.0000 C   0  0  0
    4.2000    2.4249    0.0000 O   0  0  0
    5.6000    2.4249    0.0000 S   0  0  0
    5.6000    3.8249    0.0000 O   0  0  0
    5.6000    1.0249    0.0000 O   0  0  0
    7.0000    2.4249    0.0000 O   0  0  0
    1.4000    2.4249    0.0000 C   0  0  0
    2.1000    3.6373    0.0000 O   0  0  0
   -0.0000    2.4249    0.0000 O   0  0  0
  2  1  1  6
  3  4  1
  4  5  1
  5  6  2
  5  7  2
  5  8  1
  2  3  1
  2  9  1
  9 10  2
  9 11  1
M  END
> <ZINC_ID>
4095907

> <Docking_Score>
-26.351

> <Vendor>
Combiblocks

$$$$
C9H12N2O3S
  MOLSOFT 06181908472D

 15 15  0  0  0  0  0  0  0  0999 V2000
   -2.1000   -1.2124    0.0000 C   0  0  0
   -1.4000    0.0000    0.0000 S   0  0  0
    0.0000    0.0000    0.0000 C   0  0  0
    0.7000    1.2124    0.0000 N   0  0  0
    2.1000    1.2124    0.0000 C   0  0  0
    2.8000    2.4249    0.0000 C   0  0  0
    2.8000   -0.0000    0.0000 C   0  0  0
    4.2000   -0.0000    0.0000 C   0  0  0
    4.9000    1.2124    0.0000 C   0  0  0
    6.3000    1.2124    0.0000 C   0  0  0
    7.0000    0.0000    0.0000 O   0  0  0
    7.0000    2.4249    0.0000 O   0  0  0
    2.1000   -1.2124    0.0000 C   0  0  0
    2.8000   -2.4249    0.0000 O   0  0  0
    0.7000   -1.2124    0.0000 N   0  0  0
  1  2  1
  2  3  1
  3  4  2
  4  5  1
  5  6  1
  5  7  2
  8  9  1
  9 10  1
 10 11  2
 10 12  1
  7  8  1
  7 13  1
 13 14  2
 15  3  1
 13 15  1
M  END
> <ZINC_ID>
9517200

> <Docking_Score>
-26.347

> <Vendor>
Enamine

$$$$
C12H24O3
  MOLSOFT 06181908472D

 15 14  0  0  0  0  0  0  0  0999 V2000
    1.4000    0.0000    0.0000 O   0  0  0
    2.1000    1.2124    0.0000 C   0  0  0
    1.4000    2.4249    0.0000 O   0  0  0
    3.5000    1.2124    0.0000 C   0  0  0
    4.2000    2.4249    0.0000 C   0  0  0
    5.6000    2.4249    0.0000 C   0  0  0
    6.3000    3.6373    0.0000 C   0  0  0
    7.7000    3.6373    0.0000 C   0  0  0
    8.4000    4.8497    0.0000 C   0  0  0
    9.8000    4.8497    0.0000 C   0  0  0
   10.5000    6.0622    0.0000 C   0  0  0
   11.9000    6.0622    0.0000 C   0  0  0
   12.6000    7.2746    0.0000 C   0  0  0
   14.0000    7.2746    0.0000 C   0  0  0
   14.7000    8.4870    0.0000 O   0  0  0
  1  2  2
  2  3  1
  2  4  1
  4  5  1
  5  6  1
  6  7  1
  7  8  1
  8  9  1
  9 10  1
 10 11  1
 11 12  1
 12 13  1
 13 14  1
 14 15  1
M  END
> <ZINC_ID>
1531061

> <Docking_Score>
-26.339

> <Vendor>
Aksci

$$$$
C6H10O7
  MOLSOFT 06181908472D

 13 13  0  0  1  0  0  0  0  0999 V2000
   -2.1000    1.2124    0.0000 O   0  0  0
   -1.4000    0.0000    0.0000 C   0  0  0
   -2.1000   -1.2124    0.0000 O   0  0  0
    0.0000    0.0000    0.0000 C   0  0  1
    0.7000    1.2124    0.0000 O   0  0  0
    2.1000    1.2124    0.0000 C   0  0  1
    2.8000    2.4249    0.0000 O   0  0  0
    2.8000   -0.0000    0.0000 C   0  0  2
    4.2000   -0.0000    0.0000 O   0  0  0
    2.1000   -1.2124    0.0000 C   0  0  1
    2.8000   -2.4249    0.0000 O   0  0  0
    0.7000   -1.2124    0.0000 C   0  0  1
   -0.0000   -2.4249    0.0000 O   0  0  0
  1  2  2
  2  3  1
  4  2  1  1
  4  5  1
  5  6  1
  6  7  1  1
  6  8  1
  8  9  1  6
  8 10  1
 10 11  1  1
 12  4  1
 10 12  1
 12 13  1  1
M  END
> <ZINC_ID>
4097542

> <Docking_Score>
-26.324

> <Vendor>
Combiblocks

$$$$
C6H10O3
  MOLSOFT 06181908472D

  9  8  0  0  1  0  0  0  0  0999 V2000
    1.4000    0.0000    0.0000 C   0  0  0
    2.1000    1.2124    0.0000 C   0  0  0
    1.4000    2.4249    0.0000 O   0  0  0
    3.5000    1.2124    0.0000 C   0  0  2
    4.2000    0.0000    0.0000 C   0  0  0
    4.2000    2.4249    0.0000 C   0  0  0
    5.6000    2.4249    0.0000 C   0  0  0
    6.3000    1.2124    0.0000 O   0  0  0
    6.3000    3.6373    0.0000 O   0  0  0
  1  2  1
  2  3  2
  2  4  1
  4  5  1  1
  4  6  1
  6  7  1
  7  8  2
  7  9  1
M  END
> <ZINC_ID>
1689749

> <Docking_Score>
-26.309

> <Vendor>
Sialbb

$$$$
C7H7NO4
  MOLSOFT 06181908472D

 12 12  0  0  1  0  0  0  0  0999 V2000
   -2.1000    1.2124    0.0000 C   0  0  0
   -1.4000   -0.0000    0.0000 C   0  0  1
   -2.1000   -1.2124    0.0000 C   0  0  0
   -1.4000   -2.4249    0.0000 O   0  0  0
   -3.5000   -1.2124    0.0000 O   0  0  0
   -0.0000   -0.0000    0.0000 N   0  0  0
    0.8229    1.1326    0.0000 C   0  0  0
    0.3903    2.4641    0.0000 O   0  0  0
    2.1544    0.7000    0.0000 C   0  0  0
    2.1544   -0.7000    0.0000 C   0  0  0
    0.8229   -1.1326    0.0000 C   0  0  0
    0.3903   -2.4641    0.0000 O   0  0  0
  2  1  1  6
  3  4  2
  3  5  1
  2  3  1
  2  6  1
  6  7  1
  7  8  2
  7  9  1
  9 10  2
 11  6  1
 10 11  1
 11 12  2
M  END
> <ZINC_ID>
807147

> <Docking_Score>
-26.298

> <Vendor>
Aksci

$$$$
C6H7NO4
  MOLSOFT 06181908472D

 11 11  0  0  0  0  0  0  0  0999 V2000
   -1.4000    0.0000    0.0000 O   0  0  0
    0.0000    0.0000    0.0000 C   0  0  0
    0.7000    1.2124    0.0000 C   0  0  0
    2.1000    1.2124    0.0000 C   0  0  0
    2.8000    2.4249    0.0000 C   0  0  0
    4.2000    2.4249    0.0000 O   0  0  0
    2.1000    3.6373    0.0000 O   0  0  0
    2.8000   -0.0000    0.0000 C   0  0  0
    2.1000   -1.2124    0.0000 C   0  0  0
    2.8000   -2.4249    0.0000 O   0  0  0
    0.7000   -1.2124    0.0000 N   0  0  0
  1  2  2
  2  3  1
  3  4  1
  5  6  2
  5  7  1
  4  5  1
  4  8  1
  8  9  1
  9 10  2
 11  2  1
  9 11  1
M  END
> <ZINC_ID>
1671836

> <Docking_Score>
-26.292

> <Vendor>
Aksci

$$$$
C7H7NO4
  MOLSOFT 06181908472D

 12 12  0  0  0  0  0  0  0  0999 V2000
   -3.5000   -3.6373    0.0000 O   0  0  0
   -4.2000   -2.4249    0.0000 C   0  0  0
   -5.6000   -2.4249    0.0000 O   0  0  0
   -3.5000   -1.2124    0.0000 C   0  0  0
   -2.1000   -1.2124    0.0000 N   0  0  0
   -1.4000   -0.0000    0.0000 C   0  0  0
   -2.1000    1.2124    0.0000 O   0  0  0
   -0.0000   -0.0000    0.0000 C   0  0  0
    0.8229    1.1326    0.0000 C   0  0  0
    2.1544    0.7000    0.0000 C   0  0  0
    2.1544   -0.7000    0.0000 C   0  0  0
    0.8229   -1.1326    0.0000 O   0  0  0
  1  2  2
  2  3  1
  2  4  1
  4  5  1
  5  6  1
  6  7  2
  6  8  1
  8  9  2
  9 10  1
 10 11  2
 12  8  1
 11 12  1
M  END
> <ZINC_ID>
265002

> <Docking_Score>
-26.248

> <Vendor>
Sialbb

$$$$
C4H7NO4
  MOLSOFT 06181908472D

  9  8  0  0  0  0  0  0  0  0999 V2000
    1.4000    0.0000    0.0000 O   0  0  0
    2.1000    1.2124    0.0000 C   0  0  0
    1.4000    2.4249    0.0000 O   0  0  0
    3.5000    1.2124    0.0000 C   0  0  0
    4.2000    2.4249    0.0000 N   0  0  0
    5.6000    2.4249    0.0000 C   0  0  0
    6.3000    3.6373    0.0000 C   0  0  0
    5.6000    4.8497    0.0000 O   0  0  0
    7.7000    3.6373    0.0000 O   0  0  0
  1  2  2
  2  3  1
  2  4  1
  4  5  1
  5  6  1
  6  7  1
  7  8  2
  7  9  1
M  END
> <ZINC_ID>
1769275

> <Docking_Score>
-26.241

> <Vendor>
Chemimprex

$$$$
C3H7NO4S
  MOLSOFT 06181908472D

  9  8  0  0  0  0  0  0  0  0999 V2000
    1.4000    0.0000    0.0000 C   0  0  0
    2.1000    1.2124    0.0000 S   0  0  0
    3.3124    0.5124    0.0000 O   0  0  0
    0.8876    1.9124    0.0000 O   0  0  0
    2.8000    2.4249    0.0000 N   0  0  0
    4.2000    2.4249    0.0000 C   0  0  0
    4.9000    3.6373    0.0000 C   0  0  0
    4.2000    4.8497    0.0000 O   0  0  0
    6.3000    3.6373    0.0000 O   0  0  0
  1  2  1
  2  3  2
  2  4  2
  2  5  1
  5  6  1
  6  7  1
  7  8  2
  7  9  1
M  END
> <ZINC_ID>
2170201

> <Docking_Score>
-26.215

> <Vendor>
Enamine

$$$$
C7H14N2O4S2
  MOLSOFT 06181908472D

 15 14  0  0  1  0  0  0  0  0999 V2000
    1.4000    0.0000    0.0000 N   0  0  0
    2.1000    1.2124    0.0000 C   0  0  1
    3.5000    1.2124    0.0000 C   0  0  0
    4.2000    2.4249    0.0000 S   0  0  0
    5.6000    2.4249    0.0000 C   0  0  0
    6.3000    3.6373    0.0000 S   0  0  0
    7.7000    3.6373    0.0000 C   0  0  0
    8.4000    4.8497    0.0000 C   0  0  2
    7.7000    6.0622    0.0000 N   0  0  0
    9.8000    4.8497    0.0000 C   0  0  0
   10.5000    3.6373    0.0000 O   0  0  0
   10.5000    6.0622    0.0000 O   0  0  0
    1.4000    2.4249    0.0000 C   0  0  0
    2.1000    3.6373    0.0000 O   0  0  0
   -0.0000    2.4249    0.0000 O   0  0  0
  2  1  1  6
  3  4  1
  4  5  1
  5  6  1
  6  7  1
  7  8  1
  8  9  1  6
  8 10  1
 10 11  2
 10 12  1
  2  3  1
  2 13  1
 13 14  2
 13 15  1
M  END
> <ZINC_ID>
1531043

> <Docking_Score>
-26.208

> <Vendor>
Combiblocks

$$$$
C6H7NO4
  MOLSOFT 06181908472D

 11 11  0  0  0  0  0  0  0  0999 V2000
   -1.4000   -2.4249    0.0000 O   0  0  0
   -2.1000   -1.2124    0.0000 C   0  0  0
   -3.5000   -1.2124    0.0000 O   0  0  0
   -1.4000   -0.0000    0.0000 C   0  0  0
   -0.0000   -0.0000    0.0000 N   0  0  0
    0.8229    1.1326    0.0000 C   0  0  0
    0.3903    2.4641    0.0000 O   0  0  0
    2.1544    0.7000    0.0000 C   0  0  0
    2.1544   -0.7000    0.0000 C   0  0  0
    0.8229   -1.1326    0.0000 C   0  0  0
    0.3903   -2.4641    0.0000 O   0  0  0
  1  2  2
  2  3  1
  2  4  1
  4  5  1
  5  6  1
  6  7  2
  6  8  1
  8  9  1
 10  5  1
  9 10  1
 10 11  2
M  END
> <ZINC_ID>
1688945

> <Docking_Score>
-26.208

> <Vendor>
Aksci

$$$$
C18H36N4O11
  MOLSOFT 06181908472D

 33 35  0  0  1  0  0  0  0  0999 V2000
   -2.1000   -1.2124    0.0000 N   0  0  0
   -1.4000    0.0000    0.0000 C   0  0  0
    0.0000    0.0000    0.0000 C   0  0  1
    0.7000    1.2124    0.0000 O   0  0  0
    2.1000    1.2124    0.0000 C   0  0  2
    2.8000    2.4249    0.0000 O   0  0  0
    2.1000    3.6373    0.0000 C   0  0  1
    0.7000    3.6373    0.0000 C   0  0  1
   -0.0000    2.4249    0.0000 N   0  0  0
   -0.0000    4.8497    0.0000 C   0  0  0
    0.7000    6.0622    0.0000 C   0  0  2
   -0.0000    7.2746    0.0000 N   0  0  0
    2.1000    6.0622    0.0000 C   0  0  2
    2.8000    7.2746    0.0000 O   0  0  0
    2.1000    8.4870    0.0000 C   0  0  1
    0.7000    8.4870    0.0000 O   0  0  0
   -0.0000    9.6995    0.0000 C   0  0  1
   -1.4000    9.6995    0.0000 C   0  0  0
   -2.1000    8.4871    0.0000 O   0  0  0
    0.7000   10.9119    0.0000 C   0  0  1
   -0.0000   12.1244    0.0000 O   0  0  0
    2.1000   10.9119    0.0000 C   0  0  1
    2.8000   12.1244    0.0000 N   0  0  0
    2.8000    9.6995    0.0000 C   0  0  2
    4.2000    9.6995    0.0000 O   0  0  0
    2.8000    4.8497    0.0000 C   0  0  2
    4.2000    4.8497    0.0000 O   0  0  0
    2.8000   -0.0000    0.0000 C   0  0  1
    4.2000   -0.0000    0.0000 O   0  0  0
    2.1000   -1.2124    0.0000 C   0  0  1
    2.8000   -2.4249    0.0000 O   0  0  0
    0.7000   -1.2124    0.0000 C   0  0  2
   -0.0000   -2.4249    0.0000 O   0  0  0
  1  2  1
  3  2  1  1
  3  4  1
  4  5  1
  7  6  1  1
  7  8  1
  8  9  1  1
  8 10  1
 10 11  1
 11 12  1  6
 11 13  1
 15 14  1  1
 15 16  1
 16 17  1
 18 19  1
 17 18  1  1
 17 20  1
 20 21  1  1
 20 22  1
 22 23  1  1
 24 15  1
 22 24  1
 24 25  1  6
 13 14  1  6
 26  7  1
 13 26  1
 26 27  1  6
  5  6  1  6
  5 28  1
 28 29  1  1
 28 30  1
 30 31  1  1
 32  3  1
 30 32  1
 32 33  1  6
M  END
> <ZINC_ID>
169290026

> <Docking_Score>
-26.207

> <Vendor>
ACROS

$$$$
C8H16O3
  MOLSOFT 06181908472D

 11 10  0  0  0  0  0  0  0  0999 V2000
    1.4000    0.0000    0.0000 O   0  0  0
    2.1000    1.2124    0.0000 C   0  0  0
    1.4000    2.4249    0.0000 O   0  0  0
    3.5000    1.2124    0.0000 C   0  0  0
    4.2000    2.4249    0.0000 C   0  0  0
    5.6000    2.4249    0.0000 C   0  0  0
    6.3000    3.6373    0.0000 C   0  0  0
    7.7000    3.6373    0.0000 C   0  0  0
    8.4000    4.8497    0.0000 C   0  0  0
    9.8000    4.8497    0.0000 C   0  0  0
   10.5000    6.0622    0.0000 O   0  0  0
  1  2  2
  2  3  1
  2  4  1
  4  5  1
  5  6  1
  6  7  1
  7  8  1
  8  9  1
  9 10  1
 10 11  1
M  END
> <ZINC_ID>
1845728

> <Docking_Score>
-26.204

> <Vendor>
Synquest

$$$$
C8H14N4O5
  MOLSOFT 06181908472D

 17 16  0  0  0  0  0  0  0  0999 V2000
    1.4000    0.0000    0.0000 N   0  0  0
    2.1000    1.2124    0.0000 C   0  0  0
    3.5000    1.2124    0.0000 C   0  0  0
    4.2000    0.0000    0.0000 O   0  0  0
    4.2000    2.4249    0.0000 N   0  0  0
    5.6000    2.4249    0.0000 C   0  0  0
    6.3000    3.6373    0.0000 C   0  0  0
    5.6000    4.8497    0.0000 O   0  0  0
    7.7000    3.6373    0.0000 N   0  0  0
    8.4000    4.8497    0.0000 C   0  0  0
    9.8000    4.8497    0.0000 C   0  0  0
   10.5000    3.6373    0.0000 O   0  0  0
   10.5000    6.0622    0.0000 N   0  0  0
   11.9000    6.0622    0.0000 C   0  0  0
   12.6000    7.2746    0.0000 C   0  0  0
   11.9000    8.4870    0.0000 O   0  0  0
   14.0000    7.2746    0.0000 O   0  0  0
  1  2  1
  2  3  1
  3  4  2
  3  5  1
  5  6  1
  6  7  1
  7  8  2
  7  9  1
  9 10  1
 10 11  1
 11 12  2
 11 13  1
 13 14  1
 14 15  1
 15 16  2
 15 17  1
M  END
> <ZINC_ID>
1569725

> <Docking_Score>
-26.202

> <Vendor>
Combiblocks

$$$$
C7H13NO4
  MOLSOFT 06181908472D

 12 11  0  0  1  0  0  0  0  0999 V2000
    1.4000    0.0000    0.0000 N   0  0  0
    2.1000    1.2124    0.0000 C   0  0  1
    3.5000    1.2124    0.0000 C   0  0  0
    4.2000    2.4249    0.0000 C   0  0  0
    5.6000    2.4249    0.0000 C   0  0  0
    6.3000    3.6373    0.0000 C   0  0  0
    7.7000    3.6373    0.0000 C   0  0  0
    8.4000    2.4249    0.0000 O   0  0  0
    8.4000    4.8497    0.0000 O   0  0  0
    1.4000    2.4249    0.0000 C   0  0  0
    2.1000    3.6373    0.0000 O   0  0  0
   -0.0000    2.4249    0.0000 O   0  0  0
  2  1  1  6
  3  4  1
  4  5  1
  5  6  1
  6  7  1
  7  8  2
  7  9  1
  2  3  1
  2 10  1
 10 11  2
 10 12  1
M  END
> <ZINC_ID>
1594926

> <Docking_Score>
-26.179

> <Vendor>
Combiblocks

$$$$
C3H7NO4S
  MOLSOFT 06181908472D

  9  8  0  0  1  0  0  0  0  0999 V2000
    1.4000    0.0000    0.0000 N   0  0  0
    2.1000    1.2124    0.0000 C   0  0  1
    3.5000    1.2124    0.0000 C   0  0  0
    4.2000    2.4249    0.0000 S   0  0  1
    3.5000    3.6373    0.0000 O   0  0  0
    5.6000    2.4249    0.0000 O   0  0  0
    1.4000    2.4249    0.0000 C   0  0  0
    2.1000    3.6373    0.0000 O   0  0  0
   -0.0000    2.4249    0.0000 O   0  0  0
  2  1  1  6
  3  4  1
  4  5  2
  4  6  1  1
  2  3  1
  2  7  1
  7  8  2
  7  9  1
M  END
> <ZINC_ID>
19419008

> <Docking_Score>
-26.179

> <Vendor>
Synquest

$$$$
C7H7NO3
  MOLSOFT 06181908472D

 11 11  0  0  0  0  0  0  0  0999 V2000
   -1.4000   -2.4249    0.0000 O   0  0  0
   -2.1000   -1.2124    0.0000 C   0  0  0
   -3.5000   -1.2124    0.0000 O   0  0  0
   -1.4000    0.0000    0.0000 C   0  0  0
    0.0000    0.0000    0.0000 N   0  0  0
    0.7000    1.2124    0.0000 C   0  0  0
    2.1000    1.2124    0.0000 C   0  0  0
    2.8000   -0.0000    0.0000 C   0  0  0
    2.1000   -1.2124    0.0000 C   0  0  0
    0.7000   -1.2124    0.0000 C   0  0  0
   -0.0000   -2.4249    0.0000 O   0  0  0
  1  2  2
  2  3  1
  2  4  1
  4  5  1
  5  6  1
  6  7  2
  7  8  1
  8  9  2
 10  5  1
  9 10  1
 10 11  2
M  END
> <ZINC_ID>
336881

> <Docking_Score>
-26.17

> <Vendor>
Enamine

$$$$
C6H9NO3
  MOLSOFT 06181908472D

 10 10  0  0  0  0  0  0  0  0999 V2000
   -1.4000   -2.4249    0.0000 O   0  0  0
   -2.1000   -1.2124    0.0000 C   0  0  0
   -3.5000   -1.2124    0.0000 O   0  0  0
   -1.4000   -0.0000    0.0000 C   0  0  0
   -0.0000   -0.0000    0.0000 N   0  0  0
    0.8229    1.1326    0.0000 C   0  0  0
    2.1544    0.7000    0.0000 C   0  0  0
    2.1544   -0.7000    0.0000 C   0  0  0
    0.8229   -1.1326    0.0000 C   0  0  0
    0.3903   -2.4641    0.0000 O   0  0  0
  1  2  2
  2  3  1
  2  4  1
  4  5  1
  5  6  1
  6  7  1
  7  8  1
  9  5  1
  8  9  1
  9 10  2
M  END
> <ZINC_ID>
4204933

> <Docking_Score>
-26.16

> <Vendor>
Alfa

$$$$
C5H10O3
  MOLSOFT 06181908472D

  8  7  0  0  0  0  0  0  0  0999 V2000
    1.4000    0.0000    0.0000 O   0  0  0
    2.1000    1.2124    0.0000 C   0  0  0
    1.4000    2.4249    0.0000 O   0  0  0
    3.5000    1.2124    0.0000 C   0  0  0
    4.2000    2.4249    0.0000 C   0  0  0
    5.6000    2.4249    0.0000 C   0  0  0
    6.3000    3.6373    0.0000 C   0  0  0
    7.7000    3.6373    0.0000 O   0  0  0
  1  2  2
  2  3  1
  2  4  1
  4  5  1
  5  6  1
  6  7  1
  7  8  1
M  END
> <ZINC_ID>
1529525

> <Docking_Score>
-26.153

> <Vendor>
Enamine

$$$$
C6H4O5
  MOLSOFT 06181908472D

 11 11  0  0  0  0  0  0  0  0999 V2000
   -2.1000    1.2124    0.0000 O   0  0  0
   -1.4000    0.0000    0.0000 C   0  0  0
   -2.1000   -1.2124    0.0000 O   0  0  0
    0.0000    0.0000    0.0000 C   0  0  0
    0.7000    1.2124    0.0000 C   0  0  0
    2.1000    1.2124    0.0000 C   0  0  0
    2.8000    2.4249    0.0000 O   0  0  0
    2.8000   -0.0000    0.0000 C   0  0  0
    4.2000   -0.0000    0.0000 O   0  0  0
    2.1000   -1.2124    0.0000 C   0  0  0
    0.7000   -1.2124    0.0000 O   0  0  0
  1  2  2
  2  3  1
  2  4  1
  4  5  2
  5  6  1
  6  7  2
  6  8  1
  8  9  1
  8 10  2
 11  4  1
 10 11  1
M  END
> <ZINC_ID>
336736

> <Docking_Score>
-26.13

> <Vendor>
Sialbb

$$$$
C9H9N3O3
  MOLSOFT 06181908472D

 15 16  0  0  0  0  0  0  0  0999 V2000
   -1.4000   -0.0000    0.0000 C   0  0  0
   -0.0000   -0.0000    0.0000 C   0  0  0
    0.8229    1.1326    0.0000 O   0  0  0
    2.1544    0.7000    0.0000 N   0  0  0
    2.1544   -0.7000    0.0000 C   0  0  0
    3.2870   -1.5229    0.0000 C   0  0  0
    3.1407   -2.9152    0.0000 O   0  0  0
    4.5660   -0.9535    0.0000 O   0  0  0
    0.8229   -1.1326    0.0000 C   0  0  0
    0.3903   -2.4641    0.0000 C   0  0  0
    1.3271   -3.5045    0.0000 N   0  0  0
    2.7194   -3.3582    0.0000 C   0  0  0
    3.2888   -4.6371    0.0000 C   0  0  0
    2.2484   -5.5739    0.0000 C   0  0  0
    1.0360   -4.8739    0.0000 N   0  0  0
  1  2  1
  2  3  1
  3  4  1
  4  5  2
  6  7  2
  6  8  1
  5  6  1
  9  2  2
  5  9  1
  9 10  1
 10 11  1
 11 12  1
 12 13  2
 13 14  1
 15 11  1
 14 15  2
M  END
> <ZINC_ID>
5002346

> <Docking_Score>
-26.128

> <Vendor>
Combiblocks

$$$$
C10H20O3
  MOLSOFT 06181908472D

 13 12  0  0  0  0  0  0  0  0999 V2000
    1.4000    0.0000    0.0000 O   0  0  0
    2.1000    1.2124    0.0000 C   0  0  0
    1.4000    2.4249    0.0000 O   0  0  0
    3.5000    1.2124    0.0000 C   0  0  0
    4.2000    2.4249    0.0000 C   0  0  0
    5.6000    2.4249    0.0000 C   0  0  0
    6.3000    3.6373    0.0000 C   0  0  0
    7.7000    3.6373    0.0000 C   0  0  0
    8.4000    4.8497    0.0000 C   0  0  0
    9.8000    4.8497    0.0000 C   0  0  0
   10.5000    6.0622    0.0000 C   0  0  0
   11.9000    6.0622    0.0000 C   0  0  0
   12.6000    7.2746    0.0000 O   0  0  0
  1  2  2
  2  3  1
  2  4  1
  4  5  1
  5  6  1
  6  7  1
  7  8  1
  8  9  1
  9 10  1
 10 11  1
 11 12  1
 12 13  1
M  END
> <ZINC_ID>
1529517

> <Docking_Score>
-26.121

> <Vendor>
Sialbb

$$$$
C4H6N2O2
  MOLSOFT 06181908472D

  8  8  0  0  0  0  0  0  0  0999 V2000
   -1.4000    0.0000    0.0000 O   0  0  0
    0.0000    0.0000    0.0000 C   0  0  0
    0.7000    1.2124    0.0000 C   0  0  0
    2.1000    1.2124    0.0000 N   0  0  0
    2.8000   -0.0000    0.0000 C   0  0  0
    4.2000   -0.0000    0.0000 O   0  0  0
    2.1000   -1.2124    0.0000 C   0  0  0
    0.7000   -1.2124    0.0000 N   0  0  0
  1  2  2
  2  3  1
  3  4  1
  4  5  1
  5  6  2
  5  7  1
  8  2  1
  7  8  1
M  END
> <ZINC_ID>
1529518

> <Docking_Score>
-26.121

> <Vendor>
Sialbb

$$$$
C6H8O5S
  MOLSOFT 06181908472D

 12 12  0  0  1  0  0  0  0  0999 V2000
   -1.4000   -2.4249    0.0000 C   0  0  0
   -2.1000   -1.2124    0.0000 C   0  0  0
   -3.5000   -1.2124    0.0000 O   0  0  0
   -1.4000   -0.0000    0.0000 O   0  0  0
   -0.0000   -0.0000    0.0000 C   0  0  2
    0.8229    1.1326    0.0000 C   0  0  0
    2.1544    0.7000    0.0000 S   0  0  0
    2.1544   -0.7000    0.0000 C   0  0  1
    3.2870   -1.5229    0.0000 C   0  0  0
    3.1407   -2.9152    0.0000 O   0  0  0
    4.5660   -0.9535    0.0000 O   0  0  0
    0.8229   -1.1326    0.0000 O   0  0  0
  1  2  1
  2  3  2
  2  4  1
  5  4  1  6
  5  6  1
  6  7  1
  7  8  1
  9 10  2
  9 11  1
  8  9  1  1
 12  5  1
  8 12  1
M  END
> <ZINC_ID>
403172

> <Docking_Score>
-26.106

> <Vendor>
Sialbb

$$$$
C6H9NO3S
  MOLSOFT 06181908472D

 11 11  0  0  1  0  0  0  0  0999 V2000
   -1.4000   -2.4249    0.0000 O   0  0  0
   -2.1000   -1.2124    0.0000 C   0  0  0
   -3.5000   -1.2124    0.0000 O   0  0  0
   -1.4000    0.0000    0.0000 C   0  0  0
    0.0000    0.0000    0.0000 C   0  0  1
    0.7000    1.2124    0.0000 S   0  0  0
    2.1000    1.2124    0.0000 C   0  0  0
    2.8000   -0.0000    0.0000 C   0  0  0
    2.1000   -1.2124    0.0000 N   0  0  0
    0.7000   -1.2124    0.0000 C   0  0  0
   -0.0000   -2.4249    0.0000 O   0  0  0
  1  2  2
  2  3  1
  2  4  1
  5  4  1  1
  5  6  1
  6  7  1
  7  8  1
  8  9  1
 10  5  1
  9 10  1
 10 11  2
M  END
> <ZINC_ID>
4228028

> <Docking_Score>
-26.094

> <Vendor>
Enamine

$$$$
C4H7NO3
  MOLSOFT 06181908472D

  8  7  0  0  0  0  0  0  0  0999 V2000
    1.4000    0.0000    0.0000 C   0  0  0
    2.1000    1.2124    0.0000 N   0  0  0
    1.4000    2.4249    0.0000 C   0  0  0
    3.5000    1.2124    0.0000 C   0  0  0
    4.2000    0.0000    0.0000 O   0  0  0
    4.2000    2.4249    0.0000 C   0  0  0
    3.5000    3.6373    0.0000 O   0  0  0
    5.6000    2.4249    0.0000 O   0  0  0
  1  2  1
  2  3  1
  2  4  1
  4  5  2
  4  6  1
  6  7  2
  6  8  1
M  END
> <ZINC_ID>
1529092

> <Docking_Score>
-26.085

> <Vendor>
Synquest

$$$$
C5H11NO4S
  MOLSOFT 06181908472D

 11 10  0  0  1  0  0  0  0  0999 V2000
    1.4000    0.0000    0.0000 C   0  0  0
    2.1000    1.2124    0.0000 C   0  0  0
    3.5000    1.2124    0.0000 S   0  0  0
    3.5000    2.6124    0.0000 O   0  0  0
    3.5000   -0.1876    0.0000 O   0  0  0
    4.9000    1.2124    0.0000 N   0  0  0
    5.6000    2.4249    0.0000 C   0  0  2
    4.9000    3.6373    0.0000 C   0  0  0
    7.0000    2.4249    0.0000 C   0  0  0
    7.7000    1.2124    0.0000 O   0  0  0
    7.7000    3.6373    0.0000 O   0  0  0
  1  2  1
  2  3  1
  3  4  2
  3  5  2
  3  6  1
  6  7  1
  7  8  1  6
  7  9  1
  9 10  2
  9 11  1
M  END
> <ZINC_ID>
11888990

> <Docking_Score>
-26.074

> <Vendor>
Enamine

$$$$
C6H13NO4S
  MOLSOFT 06181908472D

 12 11  0  0  1  0  0  0  0  0999 V2000
    1.4000    0.0000    0.0000 C   0  0  0
    2.1000    1.2124    0.0000 C   0  0  0
    3.5000    1.2124    0.0000 C   0  0  0
    4.2000    2.4249    0.0000 S   0  0  0
    5.4124    1.7249    0.0000 O   0  0  0
    2.9876    3.1249    0.0000 O   0  0  0
    4.9000    3.6373    0.0000 N   0  0  0
    6.3000    3.6373    0.0000 C   0  0  2
    7.0000    2.4249    0.0000 C   0  0  0
    7.0000    4.8497    0.0000 C   0  0  0
    6.3000    6.0622    0.0000 O   0  0  0
    8.4000    4.8497    0.0000 O   0  0  0
  1  2  1
  2  3  1
  3  4  1
  4  5  2
  4  6  2
  4  7  1
  7  8  1
  8  9  1  1
  8 10  1
 10 11  2
 10 12  1
M  END
> <ZINC_ID>
4218439

> <Docking_Score>
-26.064

> <Vendor>
Enamine

$$$$
C8H9N3O3
  MOLSOFT 06181908472D

 14 15  0  0  1  0  0  0  0  0999 V2000
   -1.4000   -0.0000    0.0000 C   0  0  0
   -0.0000   -0.0000    0.0000 N   0  0  0
    0.8229    1.1326    0.0000 C   0  0  0
    2.1544    0.7000    0.0000 C   0  0  0
    3.2870    1.5229    0.0000 C   0  0  0
    3.2870    2.9229    0.0000 N   0  0  0
    4.6185    3.3555    0.0000 O   0  0  0
    5.4414    2.2229    0.0000 C   0  0  1
    6.8414    2.2229    0.0000 C   0  0  0
    7.5414    1.0105    0.0000 O   0  0  0
    7.5414    3.4353    0.0000 O   0  0  0
    4.6185    1.0903    0.0000 C   0  0  0
    2.1544   -0.7000    0.0000 C   0  0  0
    0.8229   -1.1326    0.0000 N   0  0  0
  1  2  1
  2  3  1
  3  4  2
  5  6  2
  6  7  1
  7  8  1
  9 10  2
  9 11  1
  8  9  1  1
 12  5  1
  8 12  1
  4  5  1
  4 13  1
 14  2  1
 13 14  2
M  END
> <ZINC_ID>
4487224

> <Docking_Score>
-26.048

> <Vendor>
Enamine

$$$$
C4H8O4
  MOLSOFT 06181908472D

  8  7  0  0  1  0  0  0  0  0999 V2000
    1.4000    0.0000    0.0000 C   0  0  0
    2.1000    1.2124    0.0000 C   0  0  1
    1.4000    2.4249    0.0000 O   0  0  0
    3.5000    1.2124    0.0000 C   0  0  2
    4.2000    0.0000    0.0000 O   0  0  0
    4.2000    2.4249    0.0000 C   0  0  0
    3.5000    3.6373    0.0000 O   0  0  0
    5.6000    2.4249    0.0000 O   0  0  0
  2  1  1  1
  2  3  1
  2  4  1
  4  5  1  1
  4  6  1
  6  7  2
  6  8  1
M  END
> <ZINC_ID>
1695855

> <Docking_Score>
-26.025

> <Vendor>
Sialbb

$$$$
C7H14N2O4
  MOLSOFT 06181908472D

 13 12  0  0  1  0  0  0  0  0999 V2000
    1.4000    0.0000    0.0000 N   0  0  0
    2.1000    1.2124    0.0000 C   0  0  2
    3.5000    1.2124    0.0000 C   0  0  0
    4.2000    2.4249    0.0000 C   0  0  0
    5.6000    2.4249    0.0000 C   0  0  0
    6.3000    3.6373    0.0000 C   0  0  1
    5.6000    4.8497    0.0000 N   0  0  0
    7.7000    3.6373    0.0000 C   0  0  0
    8.4000    2.4249    0.0000 O   0  0  0
    8.4000    4.8497    0.0000 O   0  0  0
    1.4000    2.4249    0.0000 C   0  0  0
    2.1000    3.6373    0.0000 O   0  0  0
   -0.0000    2.4249    0.0000 O   0  0  0
  2  1  1  1
  3  4  1
  4  5  1
  5  6  1
  6  7  1  1
  6  8  1
  8  9  2
  8 10  1
  2  3  1
  2 11  1
 11 12  2
 11 13  1
M  END
> <ZINC_ID>
1677289

> <Docking_Score>
-26.02

> <Vendor>
ACROS

$$$$
C3H6O4
  MOLSOFT 06181908472D

  7  6  0  0  1  0  0  0  0  0999 V2000
    1.4000    0.0000    0.0000 O   0  0  0
    2.1000    1.2124    0.0000 C   0  0  0
    1.4000    2.4249    0.0000 O   0  0  0
    3.5000    1.2124    0.0000 C   0  0  2
    4.2000    0.0000    0.0000 O   0  0  0
    4.2000    2.4249    0.0000 C   0  0  0
    5.6000    2.4249    0.0000 O   0  0  0
  1  2  2
  2  3  1
  2  4  1
  4  5  1  1
  4  6  1
  6  7  1
M  END
> <ZINC_ID>
895140

> <Docking_Score>
-26.015

> <Vendor>
Aksci

$$$$
C12H22O11
  MOLSOFT 06181908472D

 23 24  0  0  1  0  0  0  0  0999 V2000
   -2.1000   -1.2124    0.0000 O   0  0  0
   -1.4000    0.0000    0.0000 C   0  0  0
    0.0000    0.0000    0.0000 C   0  0  1
    0.7000    1.2124    0.0000 O   0  0  0
    2.1000    1.2124    0.0000 C   0  0  1
    2.8000    2.4249    0.0000 O   0  0  0
    2.8000   -0.0000    0.0000 C   0  0  2
    4.2000   -0.0000    0.0000 O   0  0  0
    2.1000   -1.2124    0.0000 C   0  0  1
    2.8000   -2.4249    0.0000 O   0  0  0
    0.7000   -1.2124    0.0000 C   0  0  2
   -0.0000   -2.4249    0.0000 O   0  0  0
    0.7000   -3.6373    0.0000 C   0  0  2
    2.1000   -3.6373    0.0000 O   0  0  0
    2.8000   -4.8497    0.0000 C   0  0  2
    4.2000   -4.8497    0.0000 C   0  0  0
    4.9000   -3.6373    0.0000 O   0  0  0
    2.1000   -6.0622    0.0000 C   0  0  2
    2.8000   -7.2746    0.0000 O   0  0  0
    0.7000   -6.0622    0.0000 C   0  0  2
    0.0000   -7.2746    0.0000 O   0  0  0
   -0.0000   -4.8497    0.0000 C   0  0  1
   -1.4000   -4.8497    0.0000 O   0  0  0
  1  2  1
  3  2  1  1
  3  4  1
  4  5  1
  5  6  1  1
  5  7  1
  7  8  1  6
  7  9  1
  9 10  1  1
 11  3  1
  9 11  1
 11 12  1  6
 13 12  1  6
 13 14  1
 14 15  1
 16 17  1
 15 16  1  6
 15 18  1
 18 19  1  6
 18 20  1
 20 21  1  6
 22 13  1
 20 22  1
 22 23  1  1
M  END
> <ZINC_ID>
4095761

> <Docking_Score>
-26.006

> <Vendor>
Alfa

$$$$
C7H10N2O5S
  MOLSOFT 06181908472D

 15 15  0  0  0  0  0  0  0  0999 V2000
   -1.4000   -0.0000    0.0000 C   0  0  0
   -0.0000   -0.0000    0.0000 C   0  0  0
    0.8229    1.1326    0.0000 N   0  0  0
    2.1544    0.7000    0.0000 O   0  0  0
    2.1544   -0.7000    0.0000 C   0  0  0
    3.2870   -1.5229    0.0000 C   0  0  0
    0.8229   -1.1326    0.0000 C   0  0  0
    0.3903   -2.4641    0.0000 S   0  0  0
    1.7218   -2.8967    0.0000 O   0  0  0
   -0.9412   -2.0315    0.0000 O   0  0  0
   -0.0423   -3.7956    0.0000 N   0  0  0
    0.8944   -4.8360    0.0000 C   0  0  0
    0.4618   -6.1675    0.0000 C   0  0  0
   -0.9076   -6.4585    0.0000 O   0  0  0
    1.3986   -7.2079    0.0000 O   0  0  0
  1  2  1
  2  3  2
  3  4  1
  4  5  1
  5  6  1
  7  2  1
  5  7  2
  7  8  1
  8  9  2
  8 10  2
  8 11  1
 11 12  1
 12 13  1
 13 14  2
 13 15  1
M  END
> <ZINC_ID>
2929190

> <Docking_Score>
-25.998

> <Vendor>
Enamine

$$$$
C7H14N2O4
  MOLSOFT 06181908472D

 13 12  0  0  0  0  0  0  0  0999 V2000
    1.4000    0.0000    0.0000 N   0  0  0
    2.1000    1.2124    0.0000 C   0  0  1
    3.5000    1.2124    0.0000 C   0  0  0
    4.2000    2.4249    0.0000 C   0  0  0
    5.6000    2.4249    0.0000 C   0  0  0
    6.3000    3.6373    0.0000 C   0  0  1
    5.6000    4.8497    0.0000 N   0  0  0
    7.7000    3.6373    0.0000 C   0  0  0
    8.4000    2.4249    0.0000 O   0  0  0
    8.4000    4.8497    0.0000 O   0  0  0
    1.4000    2.4249    0.0000 C   0  0  0
    2.1000    3.6373    0.0000 O   0  0  0
   -0.0000    2.4249    0.0000 O   0  0  0
  2  1  1  6
  3  4  1
  4  5  1
  5  6  1
  6  7  1  1
  6  8  1
  8  9  2
  8 10  1
  2  3  1
  2 11  1
 11 12  2
 11 13  1
M  END
> <ZINC_ID>
1532722

> <Docking_Score>
-25.994

> <Vendor>
Combiblocks

$$$$
C7H14N2O4
  MOLSOFT 06181908472D

 13 12  0  0  1  0  0  0  0  0999 V2000
    1.4000    0.0000    0.0000 N   0  0  0
    2.1000    1.2124    0.0000 C   0  0  1
    3.5000    1.2124    0.0000 C   0  0  0
    4.2000    2.4249    0.0000 C   0  0  0
    5.6000    2.4249    0.0000 C   0  0  0
    6.3000    3.6373    0.0000 C   0  0  2
    5.6000    4.8497    0.0000 N   0  0  0
    7.7000    3.6373    0.0000 C   0  0  0
    8.4000    2.4249    0.0000 O   0  0  0
    8.4000    4.8497    0.0000 O   0  0  0
    1.4000    2.4249    0.0000 C   0  0  0
    2.1000    3.6373    0.0000 O   0  0  0
   -0.0000    2.4249    0.0000 O   0  0  0
  2  1  1  6
  3  4  1
  4  5  1
  5  6  1
  6  7  1  6
  6  8  1
  8  9  2
  8 10  1
  2  3  1
  2 11  1
 11 12  2
 11 13  1
M  END
> <ZINC_ID>
1532712

> <Docking_Score>
-25.978

> <Vendor>
Alfa

$$$$
C5H7NO3S
  MOLSOFT 06181908472D

 10 10  0  0  0  0  0  0  0  0999 V2000
   -1.4000   -2.4249    0.0000 O   0  0  0
   -2.1000   -1.2124    0.0000 C   0  0  0
   -3.5000   -1.2124    0.0000 O   0  0  0
   -1.4000   -0.0000    0.0000 C   0  0  0
   -0.0000   -0.0000    0.0000 N   0  0  0
    0.8229    1.1326    0.0000 C   0  0  0
    2.1544    0.7000    0.0000 C   0  0  0
    2.1544   -0.7000    0.0000 S   0  0  0
    0.8229   -1.1326    0.0000 C   0  0  0
    0.3903   -2.4641    0.0000 O   0  0  0
  1  2  2
  2  3  1
  2  4  1
  4  5  1
  5  6  1
  6  7  1
  7  8  1
  9  5  1
  8  9  1
  9 10  2
M  END
> <ZINC_ID>
4206503

> <Docking_Score>
-25.977

> <Vendor>
Enamine

$$$$
C9H8N2O3S
  MOLSOFT 06181908472D

 15 16  0  0  0  0  0  0  0  0999 V2000
   -4.2000   -0.0000    0.0000 O   0  0  0
   -3.5000   -1.2124    0.0000 C   0  0  0
   -4.2000   -2.4249    0.0000 O   0  0  0
   -2.1000   -1.2124    0.0000 C   0  0  0
   -1.4000   -0.0000    0.0000 C   0  0  0
   -0.0000   -0.0000    0.0000 C   0  0  0
    0.8229    1.1326    0.0000 N   0  0  0
    2.1544    0.7000    0.0000 C   0  0  0
    3.2870    1.5229    0.0000 C   0  0  0
    3.2870    2.9229    0.0000 C   0  0  0
    4.6185    3.3555    0.0000 C   0  0  0
    5.4414    2.2229    0.0000 C   0  0  0
    4.6185    1.0903    0.0000 S   0  0  0
    2.1544   -0.7000    0.0000 N   0  0  0
    0.8229   -1.1326    0.0000 O   0  0  0
  1  2  2
  2  3  1
  2  4  1
  4  5  1
  5  6  1
  6  7  2
  7  8  1
  9 10  2
 10 11  1
 11 12  2
 13  9  1
 12 13  1
  8  9  1
  8 14  2
 15  6  1
 14 15  1
M  END
> <ZINC_ID>
147413

> <Docking_Score>
-25.974

> <Vendor>
Aksci

$$$$
C15H24N4O6S2
  MOLSOFT 06181908472D

 27 29  0  0  1  0  0  0  0  0999 V2000
   -2.1000    1.2124    0.0000 C   0  0  0
   -1.4000   -0.0000    0.0000 C   0  0  1
   -2.1000   -1.2124    0.0000 O   0  0  0
    0.0000   -0.0000    0.0000 C   0  0  1
    0.9899   -0.9899    0.0000 C   0  0  0
    0.9899   -2.3899    0.0000 O   0  0  0
    1.9799    0.0000    0.0000 N   0  0  0
    3.2273    0.6356    0.0000 C   0  0  0
    4.4747   -0.0000    0.0000 C   0  0  0
    4.5480   -1.3981    0.0000 O   0  0  0
    5.6489    0.7625    0.0000 O   0  0  0
    3.0083    2.0184    0.0000 C   0  0  0
    3.9982    3.0083    0.0000 S   0  0  0
    3.6359    4.3606    0.0000 C   0  0  2
    2.3289    4.8623    0.0000 C   0  0  0
    2.4022    6.2604    0.0000 N   0  0  0
    3.7545    6.6227    0.0000 C   0  0  2
    4.2562    7.9298    0.0000 C   0  0  0
    3.3751    9.0178    0.0000 N   0  0  0
    3.8768   10.3248    0.0000 S   0  0  0
    2.5698   10.8265    0.0000 N   0  0  0
    5.1839    9.8231    0.0000 O   0  0  0
    4.3786   11.6318    0.0000 O   0  0  0
    4.5170    5.4486    0.0000 C   0  0  0
    1.6255    2.2374    0.0000 C   0  0  2
    0.9899    3.4848    0.0000 C   0  0  0
    0.9899    0.9899    0.0000 C   0  0  2
  2  1  1  6
  2  3  1
  2  4  1
  4  5  1  6
  5  6  2
  5  7  1
  7  8  1
  9 10  2
  9 11  1
  8  9  1
  8 12  2
 14 13  1  6
 14 15  1
 15 16  1
 16 17  1
 18 19  1
 19 20  1
 20 21  1
 20 22  2
 20 23  2
 17 18  1  6
 24 14  1
 17 24  1
 12 13  1
 12 25  1
 25 26  1  1
 27  4  1
 27  7  1  1
 25 27  1
M  END
> <ZINC_ID>
3922770

> <Docking_Score>
-25.967

> <Vendor>
Combiblocks

$$$$
C3H5NO4
  MOLSOFT 06181908472D

  8  7  0  0  0  0  0  0  0  0999 V2000
    1.4000    0.0000    0.0000 O   0  0  0
    2.1000    1.2124    0.0000 C   0  0  0
    1.4000    2.4249    0.0000 O   0  0  0
    3.5000    1.2124    0.0000 C   0  0  0
    4.2000    2.4249    0.0000 C   0  0  0
    5.6000    2.4249    0.0000 N   0  3  0
    6.3000    1.2124    0.0000 O   0  0  0
    6.3000    3.6373    0.0000 O   0  5  0
  1  2  2
  2  3  1
  2  4  1
  4  5  1
  5  6  1
  6  7  2
  6  8  1
M  CHG  2   6   1   8  -1
M  END
> <ZINC_ID>
895862

> <Docking_Score>
-25.957

> <Vendor>
Combiblocks

$$$$
C8H13NO6
  MOLSOFT 06181908472D

 15 14  0  0  1  0  0  0  0  0999 V2000
    1.4000    0.0000    0.0000 N   0  0  0
    2.1000    1.2124    0.0000 C   0  0  1
    3.5000    1.2124    0.0000 C   0  0  0
    4.2000    2.4249    0.0000 C   0  0  0
    5.6000    2.4249    0.0000 O   0  0  0
    6.3000    3.6373    0.0000 C   0  0  0
    5.6000    4.8497    0.0000 O   0  0  0
    7.7000    3.6373    0.0000 C   0  0  0
    8.4000    4.8497    0.0000 C   0  0  0
    9.8000    4.8497    0.0000 C   0  0  0
   10.5000    3.6373    0.0000 O   0  0  0
   10.5000    6.0622    0.0000 O   0  0  0
    1.4000    2.4249    0.0000 C   0  0  0
    2.1000    3.6373    0.0000 O   0  0  0
   -0.0000    2.4249    0.0000 O   0  0  0
  2  1  1  6
  3  4  1
  4  5  1
  5  6  1
  6  7  2
  6  8  1
  8  9  1
  9 10  1
 10 11  2
 10 12  1
  2  3  1
  2 13  1
 13 14  2
 13 15  1
M  END
> <ZINC_ID>
1532858

> <Docking_Score>
-25.948

> <Vendor>
Sialbb

$$$$
C5H6N2O3
  MOLSOFT 06181908472D

 10 10  0  0  0  0  0  0  0  0999 V2000
   -1.4000   -0.0000    0.0000 C   0  0  0
   -0.0000   -0.0000    0.0000 C   0  0  0
    0.8229    1.1326    0.0000 N   0  0  0
    2.1544    0.7000    0.0000 O   0  0  0
    2.1544   -0.7000    0.0000 N   0  0  0
    0.8229   -1.1326    0.0000 C   0  0  0
    0.3903   -2.4641    0.0000 C   0  0  0
    1.3271   -3.5045    0.0000 C   0  0  0
    2.6965   -3.2134    0.0000 O   0  0  0
    0.8944   -4.8360    0.0000 O   0  0  0
  1  2  1
  2  3  2
  3  4  1
  4  5  1
  6  2  1
  5  6  2
  6  7  1
  7  8  1
  8  9  2
  8 10  1
M  END
> <ZINC_ID>
801648

> <Docking_Score>
-25.923

> <Vendor>
Sialbb

$$$$
C7H15NO4S
  MOLSOFT 06181908472D

 13 12  0  0  1  0  0  0  0  0999 V2000
    1.4000    0.0000    0.0000 C   0  0  0
    2.1000    1.2124    0.0000 C   0  0  0
    3.5000    1.2124    0.0000 C   0  0  0
    4.2000    2.4249    0.0000 C   0  0  0
    5.6000    2.4249    0.0000 S   0  0  0
    5.6000    3.8249    0.0000 O   0  0  0
    5.6000    1.0249    0.0000 O   0  0  0
    7.0000    2.4249    0.0000 N   0  0  0
    7.7000    3.6373    0.0000 C   0  0  2
    7.0000    4.8497    0.0000 C   0  0  0
    9.1000    3.6373    0.0000 C   0  0  0
    9.8000    2.4249    0.0000 O   0  0  0
    9.8000    4.8497    0.0000 O   0  0  0
  1  2  1
  2  3  1
  3  4  1
  4  5  1
  5  6  2
  5  7  2
  5  8  1
  8  9  1
  9 10  1  6
  9 11  1
 11 12  2
 11 13  1
M  END
> <ZINC_ID>
3331663

> <Docking_Score>
-25.908

> <Vendor>
Enamine

$$$$
C4H7NO3S
  MOLSOFT 06181908472D

  9  8  0  0  0  0  0  0  0  0999 V2000
    1.4000    0.0000    0.0000 N   0  0  0
    2.1000    1.2124    0.0000 C   0  0  0
    1.4000    2.4249    0.0000 O   0  0  0
    3.5000    1.2124    0.0000 C   0  0  0
    4.2000    2.4249    0.0000 S   0  0  0
    5.6000    2.4249    0.0000 C   0  0  0
    6.3000    3.6373    0.0000 C   0  0  0
    5.6000    4.8497    0.0000 O   0  0  0
    7.7000    3.6373    0.0000 O   0  0  0
  1  2  1
  2  3  2
  2  4  1
  4  5  1
  5  6  1
  6  7  1
  7  8  2
  7  9  1
M  END
> <ZINC_ID>
1612017

> <Docking_Score>
-25.893

> <Vendor>
Enamine

$$$$
C5H6O4
  MOLSOFT 06181908472D

  9  9  0  0  1  0  0  0  0  0999 V2000
   -1.4000   -0.0000    0.0000 O   0  0  0
   -0.0000   -0.0000    0.0000 C   0  0  0
    0.8229    1.1326    0.0000 C   0  0  0
    2.1544    0.7000    0.0000 C   0  0  0
    2.1544   -0.7000    0.0000 C   0  0  2
    3.2870   -1.5229    0.0000 C   0  0  0
    3.1407   -2.9152    0.0000 O   0  0  0
    4.5660   -0.9535    0.0000 O   0  0  0
    0.8229   -1.1326    0.0000 O   0  0  0
  1  2  2
  2  3  1
  3  4  1
  4  5  1
  6  7  2
  6  8  1
  5  6  1  6
  9  2  1
  5  9  1
M  END
> <ZINC_ID>
4262240

> <Docking_Score>
-25.888

> <Vendor>
Enamine

$$$$
C5H8N2O3
  MOLSOFT 06181908472D

 10 10  0  0  0  0  0  0  0  0999 V2000
   -1.4000   -2.4249    0.0000 O   0  0  0
   -2.1000   -1.2124    0.0000 C   0  0  0
   -3.5000   -1.2124    0.0000 O   0  0  0
   -1.4000   -0.0000    0.0000 C   0  0  0
   -0.0000   -0.0000    0.0000 N   0  0  0
    0.8229    1.1326    0.0000 C   0  0  0
    2.1544    0.7000    0.0000 C   0  0  0
    2.1544   -0.7000    0.0000 N   0  0  0
    0.8229   -1.1326    0.0000 C   0  0  0
    0.3903   -2.4641    0.0000 O   0  0  0
  1  2  2
  2  3  1
  2  4  1
  4  5  1
  5  6  1
  6  7  1
  7  8  1
  9  5  1
  8  9  1
  9 10  2
M  END
> <ZINC_ID>
874399

> <Docking_Score>
-25.886

> <Vendor>
Aksci

$$$$
C4H6O4
  MOLSOFT 06181908472D

  8  7  0  0  0  0  0  0  0  0999 V2000
    1.4000    0.0000    0.0000 C   0  0  0
    2.1000    1.2124    0.0000 O   0  0  0
    3.5000    1.2124    0.0000 C   0  0  0
    4.2000    0.0000    0.0000 O   0  0  0
    4.2000    2.4249    0.0000 C   0  0  0
    5.6000    2.4249    0.0000 C   0  0  0
    6.3000    1.2124    0.0000 O   0  0  0
    6.3000    3.6373    0.0000 O   0  0  0
  1  2  1
  2  3  1
  3  4  2
  3  5  1
  5  6  1
  6  7  2
  6  8  1
M  END
> <ZINC_ID>
2146608

> <Docking_Score>
-25.883

> <Vendor>
Combiblocks

$$$$
C6H11NO3
  MOLSOFT 06181908472D

 10  9  0  0  0  0  0  0  0  0999 V2000
    1.4000    0.0000    0.0000 C   0  0  0
    2.1000    1.2124    0.0000 N   0  0  0
    1.4000    2.4249    0.0000 C   0  0  0
    3.5000    1.2124    0.0000 C   0  0  0
    4.2000    0.0000    0.0000 O   0  0  0
    4.2000    2.4249    0.0000 C   0  0  0
    5.6000    2.4249    0.0000 C   0  0  0
    6.3000    3.6373    0.0000 C   0  0  0
    5.6000    4.8497    0.0000 O   0  0  0
    7.7000    3.6373    0.0000 O   0  0  0
  1  2  1
  2  3  1
  2  4  1
  4  5  2
  4  6  1
  6  7  1
  7  8  1
  8  9  2
  8 10  1
M  END
> <ZINC_ID>
1678903

> <Docking_Score>
-25.875

> <Vendor>
Alfa

$$$$
C5H8O3
  MOLSOFT 06181908472D

  8  7  0  0  0  0  0  0  0  0999 V2000
    1.4000    0.0000    0.0000 C   0  0  0
    2.1000    1.2124    0.0000 C   0  0  0
    1.4000    2.4249    0.0000 O   0  0  0
    3.5000    1.2124    0.0000 C   0  0  0
    4.2000    2.4249    0.0000 C   0  0  0
    5.6000    2.4249    0.0000 C   0  0  0
    6.3000    1.2124    0.0000 O   0  0  0
    6.3000    3.6373    0.0000 O   0  0  0
  1  2  1
  2  3  2
  2  4  1
  4  5  1
  5  6  1
  6  7  2
  6  8  1
M  END
> <ZINC_ID>
586584

> <Docking_Score>
-25.872

> <Vendor>
Sialbb

$$$$
C6H10O3
  MOLSOFT 06181908472D

  9  8  0  0  0  0  0  0  0  0999 V2000
    1.4000    0.0000    0.0000 C   0  0  0
    2.1000    1.2124    0.0000 C   0  0  0
    1.4000    2.4249    0.0000 C   0  0  0
    3.5000    1.2124    0.0000 C   0  0  0
    4.2000    2.4249    0.0000 C   0  0  0
    3.5000    3.6373    0.0000 O   0  0  0
    5.6000    2.4249    0.0000 C   0  0  0
    6.3000    1.2124    0.0000 O   0  0  0
    6.3000    3.6373    0.0000 O   0  0  0
  1  2  1
  2  3  1
  2  4  1
  4  5  1
  5  6  2
  5  7  1
  7  8  2
  7  9  1
M  END
> <ZINC_ID>
1532578

> <Docking_Score>
-25.872

> <Vendor>
Enamine

$$$$
C6H6N2O3
  MOLSOFT 06181908472D

 11 11  0  0  0  0  0  0  0  0999 V2000
   -1.4000   -2.4249    0.0000 O   0  0  0
   -2.1000   -1.2124    0.0000 C   0  0  0
   -3.5000   -1.2124    0.0000 O   0  0  0
   -1.4000    0.0000    0.0000 C   0  0  0
    0.0000    0.0000    0.0000 N   0  0  0
    0.7000    1.2124    0.0000 N   0  0  0
    2.1000    1.2124    0.0000 C   0  0  0
    2.8000   -0.0000    0.0000 C   0  0  0
    2.1000   -1.2124    0.0000 C   0  0  0
    0.7000   -1.2124    0.0000 C   0  0  0
   -0.0000   -2.4249    0.0000 O   0  0  0
  1  2  2
  2  3  1
  2  4  1
  4  5  1
  5  6  1
  6  7  2
  7  8  1
  8  9  2
 10  5  1
  9 10  1
 10 11  2
M  END
> <ZINC_ID>
1295987

> <Docking_Score>
-25.863

> <Vendor>
Enamine

$$$$
C6H12O7
  MOLSOFT 06181908472D

 13 12  0  0  1  0  0  0  0  0999 V2000
    1.4000    0.0000    0.0000 O   0  0  0
    2.1000    1.2124    0.0000 C   0  0  0
    1.4000    2.4249    0.0000 O   0  0  0
    3.5000    1.2124    0.0000 C   0  0  1
    4.2000    0.0000    0.0000 O   0  0  0
    4.2000    2.4249    0.0000 C   0  0  2
    3.5000    3.6373    0.0000 O   0  0  0
    5.6000    2.4249    0.0000 C   0  0  2
    6.3000    1.2124    0.0000 O   0  0  0
    6.3000    3.6373    0.0000 C   0  0  2
    5.6000    4.8497    0.0000 O   0  0  0
    7.7000    3.6373    0.0000 C   0  0  0
    8.4000    4.8497    0.0000 O   0  0  0
  1  2  2
  2  3  1
  2  4  1
  4  5  1  6
  4  6  1
  6  7  1  6
  6  8  1
  8  9  1  1
  8 10  1
 10 11  1  6
 10 12  1
 12 13  1
M  END
> <ZINC_ID>
1532755

> <Docking_Score>
-25.857

> <Vendor>
Sialbb

$$$$
C9H16N4O5
  MOLSOFT 06181908472D

 18 17  0  0  1  0  0  0  0  0999 V2000
    1.4000    0.0000    0.0000 C   0  0  0
    2.1000    1.2124    0.0000 C   0  0  2
    1.4000    2.4249    0.0000 N   0  0  0
    3.5000    1.2124    0.0000 C   0  0  0
    4.2000    0.0000    0.0000 O   0  0  0
    4.2000    2.4249    0.0000 N   0  0  0
    5.6000    2.4249    0.0000 C   0  0  0
    6.3000    3.6373    0.0000 C   0  0  0
    5.6000    4.8497    0.0000 O   0  0  0
    7.7000    3.6373    0.0000 N   0  0  0
    8.4000    4.8497    0.0000 C   0  0  0
    9.8000    4.8497    0.0000 C   0  0  0
   10.5000    3.6373    0.0000 O   0  0  0
   10.5000    6.0622    0.0000 N   0  0  0
   11.9000    6.0622    0.0000 C   0  0  0
   12.6000    7.2746    0.0000 C   0  0  0
   11.9000    8.4870    0.0000 O   0  0  0
   14.0000    7.2746    0.0000 O   0  0  0
  2  1  1  6
  2  3  1
  2  4  1
  4  5  2
  4  6  1
  6  7  1
  7  8  1
  8  9  2
  8 10  1
 10 11  1
 11 12  1
 12 13  2
 12 14  1
 14 15  1
 15 16  1
 16 17  2
 16 18  1
M  END
> <ZINC_ID>
4760989

> <Docking_Score>
-25.855

> <Vendor>
Chemimprex

$$$$
C5H6N2O4
  MOLSOFT 06181908472D

 11 11  0  0  1  0  0  0  0  0999 V2000
   -1.4000    0.0000    0.0000 O   0  0  0
    0.0000    0.0000    0.0000 C   0  0  0
    0.7000    1.2124    0.0000 C   0  0  0
    2.1000    1.2124    0.0000 C   0  0  2
    2.8000    2.4249    0.0000 C   0  0  0
    4.2000    2.4249    0.0000 O   0  0  0
    2.1000    3.6373    0.0000 O   0  0  0
    2.8000   -0.0000    0.0000 N   0  0  0
    2.1000   -1.2124    0.0000 C   0  0  0
    2.8000   -2.4249    0.0000 O   0  0  0
    0.7000   -1.2124    0.0000 N   0  0  0
  1  2  2
  2  3  1
  3  4  1
  5  6  2
  5  7  1
  4  5  1  6
  4  8  1
  8  9  1
  9 10  2
 11  2  1
  9 11  1
M  END
> <ZINC_ID>
895194

> <Docking_Score>
-25.839

> <Vendor>
Combiblocks

$$$$
C6H10O3
  MOLSOFT 06181908472D

  9  9  0  0  1  0  0  0  0  0999 V2000
   -2.1000    1.2124    0.0000 O   0  0  0
   -1.4000    0.0000    0.0000 C   0  0  0
   -2.1000   -1.2124    0.0000 O   0  0  0
    0.0000    0.0000    0.0000 C   0  0  1
    0.7000    1.2124    0.0000 C   0  0  0
    2.1000    1.2124    0.0000 C   0  0  0
    2.8000   -0.0000    0.0000 C   0  0  0
    2.1000   -1.2124    0.0000 O   0  0  0
    0.7000   -1.2124    0.0000 C   0  0  0
  1  2  2
  2  3  1
  4  2  1  1
  4  5  1
  5  6  1
  6  7  1
  7  8  1
  9  4  1
  8  9  1
M  END
> <ZINC_ID>
2599153

> <Docking_Score>
-25.834

> <Vendor>
Synquest

$$$$
C8H13NO3
  MOLSOFT 06181908472D

 12 12  0  0  0  0  0  0  0  0999 V2000
   -3.5000   -3.6373    0.0000 O   0  0  0
   -4.2000   -2.4249    0.0000 C   0  0  0
   -5.6000   -2.4249    0.0000 O   0  0  0
   -3.5000   -1.2124    0.0000 C   0  0  0
   -2.1000   -1.2124    0.0000 C   0  0  0
   -1.4000   -0.0000    0.0000 C   0  0  0
   -2.1000    1.2124    0.0000 O   0  0  0
   -0.0000   -0.0000    0.0000 N   0  0  0
    0.8229    1.1326    0.0000 C   0  0  0
    2.1544    0.7000    0.0000 C   0  0  0
    2.1544   -0.7000    0.0000 C   0  0  0
    0.8229   -1.1326    0.0000 C   0  0  0
  1  2  2
  2  3  1
  2  4  1
  4  5  1
  5  6  1
  6  7  2
  6  8  1
  8  9  1
  9 10  1
 10 11  1
 12  8  1
 11 12  1
M  END
> <ZINC_ID>
397852

> <Docking_Score>
-25.825

> <Vendor>
Synquest

$$$$
C9H18O3
  MOLSOFT 06181908472D

 12 11  0  0  0  0  0  0  0  0999 V2000
    1.4000    0.0000    0.0000 O   0  0  0
    2.1000    1.2124    0.0000 C   0  0  0
    1.4000    2.4249    0.0000 O   0  0  0
    3.5000    1.2124    0.0000 C   0  0  0
    4.2000    2.4249    0.0000 C   0  0  0
    5.6000    2.4249    0.0000 C   0  0  0
    6.3000    3.6373    0.0000 C   0  0  0
    7.7000    3.6373    0.0000 C   0  0  0
    8.4000    4.8497    0.0000 C   0  0  0
    9.8000    4.8497    0.0000 C   0  0  0
   10.5000    6.0622    0.0000 C   0  0  0
   11.9000    6.0622    0.0000 O   0  0  0
  1  2  2
  2  3  1
  2  4  1
  4  5  1
  5  6  1
  6  7  1
  7  8  1
  8  9  1
  9 10  1
 10 11  1
 11 12  1
M  END
> <ZINC_ID>
2569273

> <Docking_Score>
-25.825

> <Vendor>
Synquest

$$$$
C6H9NO3
  MOLSOFT 06181908472D

 10  9  0  0  0  0  0  0  0  0999 V2000
    1.4000    0.0000    0.0000 C   0  0  0
    2.1000    1.2124    0.0000 C   0  0  0
    1.4000    2.4249    0.0000 C   0  0  0
    3.5000    1.2124    0.0000 C   0  0  0
    4.2000    0.0000    0.0000 O   0  0  0
    4.2000    2.4249    0.0000 N   0  0  0
    5.6000    2.4249    0.0000 C   0  0  0
    6.3000    3.6373    0.0000 C   0  0  0
    5.6000    4.8497    0.0000 O   0  0  0
    7.7000    3.6373    0.0000 O   0  0  0
  1  2  2
  2  3  1
  2  4  1
  4  5  2
  4  6  1
  6  7  1
  7  8  1
  8  9  2
  8 10  1
M  END
> <ZINC_ID>
1459981

> <Docking_Score>
-25.82

> <Vendor>
Chemimprex

$$$$
C6H10N2O5
  MOLSOFT 06181908472D

 13 12  0  0  1  0  0  0  0  0999 V2000
    1.4000    0.0000    0.0000 N   0  0  0
    2.1000    1.2124    0.0000 C   0  0  0
    3.5000    1.2124    0.0000 C   0  0  0
    4.2000    0.0000    0.0000 O   0  0  0
    4.2000    2.4249    0.0000 N   0  0  0
    5.6000    2.4249    0.0000 C   0  0  1
    6.3000    3.6373    0.0000 C   0  0  0
    7.7000    3.6373    0.0000 C   0  0  0
    8.4000    2.4249    0.0000 O   0  0  0
    8.4000    4.8497    0.0000 O   0  0  0
    6.3000    1.2124    0.0000 C   0  0  0
    5.6000    0.0000    0.0000 O   0  0  0
    7.7000    1.2124    0.0000 O   0  0  0
  1  2  1
  2  3  1
  3  4  2
  3  5  1
  5  6  1
  7  8  1
  8  9  2
  8 10  1
  6  7  1  1
  6 11  1
 11 12  2
 11 13  1
M  END
> <ZINC_ID>
1708196

> <Docking_Score>
-25.82

> <Vendor>
Aksci

$$$$
C2H5NO3
  MOLSOFT 06181908472D

  6  5  0  0  0  0  0  0  0  0999 V2000
    1.4000    0.0000    0.0000 N   0  0  0
    2.1000    1.2124    0.0000 O   0  0  0
    3.5000    1.2124    0.0000 C   0  0  0
    4.2000    2.4249    0.0000 C   0  0  0
    3.5000    3.6373    0.0000 O   0  0  0
    5.6000    2.4249    0.0000 O   0  0  0
  1  2  1
  2  3  1
  3  4  1
  4  5  2
  4  6  1
M  END
> <ZINC_ID>
4689151

> <Docking_Score>
-25.817

> <Vendor>
Combiblocks

$$$$
C6H9NO3S
  MOLSOFT 06181908472D

 11 11  0  0  0  0  0  0  0  0999 V2000
   -4.2000   -0.0000    0.0000 O   0  0  0
   -3.5000   -1.2124    0.0000 C   0  0  0
   -4.2000   -2.4249    0.0000 O   0  0  0
   -2.1000   -1.2124    0.0000 C   0  0  0
   -1.4000   -0.0000    0.0000 C   0  0  0
   -0.0000   -0.0000    0.0000 N   0  0  0
    0.8229    1.1326    0.0000 C   0  0  0
    2.1544    0.7000    0.0000 C   0  0  0
    2.1544   -0.7000    0.0000 S   0  0  0
    0.8229   -1.1326    0.0000 C   0  0  0
    0.3903   -2.4641    0.0000 O   0  0  0
  1  2  2
  2  3  1
  2  4  1
  4  5  1
  5  6  1
  6  7  1
  7  8  1
  8  9  1
 10  6  1
  9 10  1
 10 11  2
M  END
> <ZINC_ID>
4218778

> <Docking_Score>
-25.816

> <Vendor>
Combiblocks

$$$$
C6H7NO4S
  MOLSOFT 06181908472D

 12 12  0  0  1  0  0  0  0  0999 V2000
   -2.1000    1.2124    0.0000 C   0  0  0
   -1.4000   -0.0000    0.0000 C   0  0  1
   -2.1000   -1.2124    0.0000 C   0  0  0
   -1.4000   -2.4249    0.0000 O   0  0  0
   -3.5000   -1.2124    0.0000 O   0  0  0
   -0.0000   -0.0000    0.0000 N   0  0  0
    0.8229    1.1326    0.0000 C   0  0  0
    0.3903    2.4641    0.0000 O   0  0  0
    2.1544    0.7000    0.0000 C   0  0  0
    2.1544   -0.7000    0.0000 S   0  0  0
    0.8229   -1.1326    0.0000 C   0  0  0
    0.3903   -2.4641    0.0000 O   0  0  0
  2  1  1  6
  3  4  2
  3  5  1
  2  3  1
  2  6  1
  6  7  1
  7  8  2
  7  9  1
  9 10  1
 11  6  1
 10 11  1
 11 12  2
M  END
> <ZINC_ID>
3866149

> <Docking_Score>
-25.809

> <Vendor>
Enamine

$$$$
C7H10O4
  MOLSOFT 06181908472D

 11 11  0  0  1  0  0  0  0  0999 V2000
   -4.2000   -2.4249    0.0000 C   0  0  0
   -3.5000   -1.2124    0.0000 C   0  0  0
   -2.1000   -1.2124    0.0000 O   0  0  0
   -1.4000   -0.0000    0.0000 C   0  0  0
   -2.1000    1.2124    0.0000 O   0  0  0
    0.0000    0.0000    0.0000 C   0  0  2
    1.2124    0.7000    0.0000 C   0  0  0
    1.2124   -0.7000    0.0000 C   0  0  2
    1.9124   -1.9124    0.0000 C   0  0  0
    1.2124   -3.1249    0.0000 O   0  0  0
    3.3124   -1.9124    0.0000 O   0  0  0
  1  2  1
  2  3  1
  3  4  1
  4  5  2
  6  4  1  6
  6  7  1
  8  6  1
  7  8  1
  8  9  1  6
  9 10  2
  9 11  1
M  END
> <ZINC_ID>
1767636

> <Docking_Score>
-25.807

> <Vendor>
Synquest

$$$$
C7H8N2O3
  MOLSOFT 06181908472D

 12 12  0  0  0  0  0  0  0  0999 V2000
   -4.2000   -0.0000    0.0000 O   0  0  0
   -3.5000   -1.2124    0.0000 C   0  0  0
   -4.2000   -2.4249    0.0000 O   0  0  0
   -2.1000   -1.2124    0.0000 C   0  0  0
   -1.4000    0.0000    0.0000 C   0  0  0
    0.0000    0.0000    0.0000 C   0  0  0
    0.7000    1.2124    0.0000 C   0  0  0
    2.1000    1.2124    0.0000 C   0  0  0
    2.8000   -0.0000    0.0000 C   0  0  0
    4.2000   -0.0000    0.0000 O   0  0  0
    2.1000   -1.2124    0.0000 N   0  0  0
    0.7000   -1.2124    0.0000 N   0  0  0
  1  2  2
  2  3  1
  2  4  1
  4  5  1
  5  6  1
  6  7  1
  7  8  2
  8  9  1
  9 10  2
  9 11  1
 12  6  2
 11 12  1
M  END
> <ZINC_ID>
19087707

> <Docking_Score>
-25.796

> <Vendor>
Enamine

$$$$
C6H12O4S
  MOLSOFT 06181908472D

 11 10  0  0  0  0  0  0  0  0999 V2000
    1.4000    0.0000    0.0000 C   0  0  0
    2.1000    1.2124    0.0000 C   0  0  0
    3.5000    1.2124    0.0000 C   0  0  0
    4.2000    2.4249    0.0000 C   0  0  0
    5.6000    2.4249    0.0000 S   0  0  0
    5.6000    3.8249    0.0000 O   0  0  0
    5.6000    1.0249    0.0000 O   0  0  0
    7.0000    2.4249    0.0000 C   0  0  0
    7.7000    3.6373    0.0000 C   0  0  0
    7.0000    4.8497    0.0000 O   0  0  0
    9.1000    3.6373    0.0000 O   0  0  0
  1  2  1
  2  3  1
  3  4  1
  4  5  1
  5  6  2
  5  7  2
  5  8  1
  8  9  1
  9 10  2
  9 11  1
M  END
> <ZINC_ID>
4753673

> <Docking_Score>
-25.793

> <Vendor>
Enamine

$$$$
C5H10O4
  MOLSOFT 06181908472D

  9  8  0  0  0  0  0  0  0  0999 V2000
    1.4000    0.0000    0.0000 O   0  0  0
    2.1000    1.2124    0.0000 C   0  0  0
    1.4000    2.4249    0.0000 O   0  0  0
    3.5000    1.2124    0.0000 C   0  0  0
    4.2000    2.4249    0.0000 C   0  0  0
    5.6000    2.4249    0.0000 O   0  0  0
    6.3000    3.6373    0.0000 C   0  0  0
    7.7000    3.6373    0.0000 C   0  0  0
    8.4000    4.8497    0.0000 O   0  0  0
  1  2  2
  2  3  1
  2  4  1
  4  5  1
  5  6  1
  6  7  1
  7  8  1
  8  9  1
M  END
> <ZINC_ID>
19870479

> <Docking_Score>
-25.791

> <Vendor>
Combiblocks

$$$$
C5H6N2O4
  MOLSOFT 06181908472D

 11 11  0  0  1  0  0  0  0  0999 V2000
   -1.4000    0.0000    0.0000 O   0  0  0
    0.0000    0.0000    0.0000 C   0  0  0
    0.7000    1.2124    0.0000 C   0  0  0
    2.1000    1.2124    0.0000 C   0  0  1
    2.8000    2.4249    0.0000 C   0  0  0
    4.2000    2.4249    0.0000 O   0  0  0
    2.1000    3.6373    0.0000 O   0  0  0
    2.8000   -0.0000    0.0000 N   0  0  0
    2.1000   -1.2124    0.0000 C   0  0  0
    2.8000   -2.4249    0.0000 O   0  0  0
    0.7000   -1.2124    0.0000 N   0  0  0
  1  2  2
  2  3  1
  3  4  1
  5  6  2
  5  7  1
  4  5  1  1
  4  8  1
  8  9  1
  9 10  2
 11  2  1
  9 11  1
M  END
> <ZINC_ID>
3869850

> <Docking_Score>
-25.782

> <Vendor>
Chemimprex

$$$$
C10H11N3O4S
  MOLSOFT 06181908472D

 18 19  0  0  1  0  0  0  0  0999 V2000
   -1.4000   -2.4249    0.0000 O   0  0  0
   -2.1000   -1.2124    0.0000 C   0  0  0
   -3.5000   -1.2124    0.0000 O   0  0  0
   -1.4000   -0.0000    0.0000 C   0  0  0
   -0.0000   -0.0000    0.0000 C   0  0  0
    0.8229    1.1326    0.0000 C   0  0  0
    2.1544    0.7000    0.0000 S   0  0  0
    2.1544   -0.7000    0.0000 C   0  0  0
    3.2870   -1.5229    0.0000 N   0  0  0
    4.5660   -0.9535    0.0000 C   0  0  0
    4.7123    0.4389    0.0000 O   0  0  0
    5.6986   -1.7764    0.0000 C   0  0  1
    7.0301   -1.3437    0.0000 C   0  0  0
    7.8530   -2.4764    0.0000 C   0  0  0
    7.0301   -3.6090    0.0000 C   0  0  0
    7.4627   -4.9405    0.0000 O   0  0  0
    5.6986   -3.1764    0.0000 N   0  0  0
    0.8229   -1.1326    0.0000 N   0  0  0
  1  2  2
  2  3  1
  2  4  1
  4  5  1
  5  6  2
  6  7  1
  7  8  1
  9 10  1
 10 11  2
 12 10  1  1
 12 13  1
 13 14  1
 14 15  1
 15 16  2
 17 12  1
 15 17  1
  8  9  1
 18  5  1
  8 18  2
M  END
> <ZINC_ID>
11920156

> <Docking_Score>
-25.773

> <Vendor>
Enamine

$$$$
C6H10O3
  MOLSOFT 06181908472D

  9  9  0  0  1  0  0  0  0  0999 V2000
   -2.1000    1.2124    0.0000 O   0  0  0
   -1.4000    0.0000    0.0000 C   0  0  0
   -2.1000   -1.2124    0.0000 O   0  0  0
    0.0000    0.0000    0.0000 C   0  0  1
    0.7000    1.2124    0.0000 C   0  0  0
    2.1000    1.2124    0.0000 C   0  0  0
    2.8000   -0.0000    0.0000 C   0  0  0
    2.1000   -1.2124    0.0000 C   0  0  0
    0.7000   -1.2124    0.0000 O   0  0  0
  1  2  2
  2  3  1
  4  2  1  1
  4  5  1
  5  6  1
  6  7  1
  7  8  1
  9  4  1
  8  9  1
M  END
> <ZINC_ID>
12370259

> <Docking_Score>
-25.762

> <Vendor>
Enamine

$$$$
C6H8O4
  MOLSOFT 06181908472D

 10  9  0  0  0  0  0  0  0  0999 V2000
    1.4000    0.0000    0.0000 C   0  0  0
    2.1000    1.2124    0.0000 C   0  0  0
    3.5000    1.2124    0.0000 C   0  0  0
    4.2000    0.0000    0.0000 O   0  0  0
    4.2000    2.4249    0.0000 O   0  0  0
    5.6000    2.4249    0.0000 C   0  0  0
    6.3000    3.6373    0.0000 C   0  0  0
    7.7000    3.6373    0.0000 C   0  0  0
    8.4000    2.4249    0.0000 O   0  0  0
    8.4000    4.8497    0.0000 O   0  0  0
  1  2  2
  2  3  1
  3  4  2
  3  5  1
  5  6  1
  6  7  1
  7  8  1
  8  9  2
  8 10  1
M  END
> <ZINC_ID>
2389977

> <Docking_Score>
-25.76

> <Vendor>
Enamine

$$$$
C8H12N2O5S
  MOLSOFT 06181908472D

 16 16  0  0  0  0  0  0  0  0999 V2000
   -1.4000   -0.0000    0.0000 C   0  0  0
   -0.0000   -0.0000    0.0000 C   0  0  0
    0.8229    1.1326    0.0000 N   0  0  0
    2.1544    0.7000    0.0000 O   0  0  0
    2.1544   -0.7000    0.0000 C   0  0  0
    3.2870   -1.5229    0.0000 C   0  0  0
    0.8229   -1.1326    0.0000 C   0  0  0
    0.3903   -2.4641    0.0000 S   0  0  0
    1.7218   -2.8967    0.0000 O   0  0  0
   -0.9412   -2.0315    0.0000 O   0  0  0
   -0.0423   -3.7956    0.0000 N   0  0  0
    0.8944   -4.8360    0.0000 C   0  0  0
    0.4618   -6.1675    0.0000 C   0  0  0
    1.3986   -7.2079    0.0000 C   0  0  0
    2.7680   -6.9168    0.0000 O   0  0  0
    0.9660   -8.5393    0.0000 O   0  0  0
  1  2  1
  2  3  2
  3  4  1
  4  5  1
  5  6  1
  7  2  1
  5  7  2
  7  8  1
  8  9  2
  8 10  2
  8 11  1
 11 12  1
 12 13  1
 13 14  1
 14 15  2
 14 16  1
M  END
> <ZINC_ID>
4218267

> <Docking_Score>
-25.758

> <Vendor>
Enamine

$$$$
C4H7NO5
  MOLSOFT 06181908472D

 10  9  0  0  1  0  0  0  0  0999 V2000
    1.4000    0.0000    0.0000 N   0  0  0
    2.1000    1.2124    0.0000 C   0  0  2
    1.4000    2.4249    0.0000 C   0  0  0
    2.1000    3.6373    0.0000 O   0  0  0
   -0.0000    2.4249    0.0000 O   0  0  0
    3.5000    1.2124    0.0000 C   0  0  2
    4.2000    0.0000    0.0000 O   0  0  0
    4.2000    2.4249    0.0000 C   0  0  0
    3.5000    3.6373    0.0000 O   0  0  0
    5.6000    2.4249    0.0000 O   0  0  0
  2  1  1  6
  3  4  2
  3  5  1
  2  3  1
  2  6  1
  6  7  1  1
  6  8  1
  8  9  2
  8 10  1
M  END
> <ZINC_ID>
901878

> <Docking_Score>
-25.756

> <Vendor>
Aksci

$$$$
C13H25NO3
  MOLSOFT 06181908472D

 17 16  0  0  0  0  0  0  0  0999 V2000
    1.4000    0.0000    0.0000 C   0  0  0
    2.1000    1.2124    0.0000 C   0  0  0
    3.5000    1.2124    0.0000 C   0  0  0
    4.2000    2.4249    0.0000 C   0  0  0
    5.6000    2.4249    0.0000 C   0  0  0
    6.3000    3.6373    0.0000 C   0  0  0
    7.7000    3.6373    0.0000 C   0  0  0
    8.4000    4.8497    0.0000 C   0  0  0
    9.8000    4.8497    0.0000 C   0  0  0
   10.5000    6.0622    0.0000 C   0  0  0
    9.8000    7.2746    0.0000 O   0  0  0
   11.9000    6.0622    0.0000 N   0  0  0
   12.6000    4.8497    0.0000 C   0  0  0
   12.6000    7.2746    0.0000 C   0  0  0
   14.0000    7.2746    0.0000 C   0  0  0
   14.7000    6.0622    0.0000 O   0  0  0
   14.7000    8.4870    0.0000 O   0  0  0
  1  2  1
  2  3  1
  3  4  1
  4  5  1
  5  6  1
  6  7  1
  7  8  1
  8  9  1
  9 10  1
 10 11  2
 10 12  1
 12 13  1
 12 14  1
 14 15  1
 15 16  2
 15 17  1
M  END
> <ZINC_ID>
2565534

> <Docking_Score>
-25.756

> <Vendor>
Combiblocks

$$$$
C7H12O3
  MOLSOFT 06181908472D

 10 10  0  0  1  0  0  0  0  0999 V2000
   -2.1000    1.2124    0.0000 O   0  0  0
   -1.4000    0.0000    0.0000 C   0  0  0
   -2.1000   -1.2124    0.0000 O   0  0  0
    0.0000    0.0000    0.0000 C   0  0  1
    0.7000    1.2124    0.0000 C   0  0  0
    2.1000    1.2124    0.0000 C   0  0  0
    2.8000   -0.0000    0.0000 C   0  0  0
    2.1000   -1.2124    0.0000 C   0  0  0
    0.7000   -1.2124    0.0000 C   0  0  1
   -0.0000   -2.4249    0.0000 O   0  0  0
  1  2  2
  2  3  1
  4  2  1  1
  4  5  1
  5  6  1
  6  7  1
  7  8  1
  9  4  1
  8  9  1
  9 10  1  1
M  END
> <ZINC_ID>
392566

> <Docking_Score>
-25.75

> <Vendor>
Aksci

$$$$
C8H9N3O4
  MOLSOFT 06181908472D

 15 15  0  0  0  0  0  0  0  0999 V2000
   -1.4000   -2.4249    0.0000 C   0  0  0
   -2.1000   -1.2124    0.0000 C   0  0  0
   -3.5000   -1.2124    0.0000 O   0  0  0
   -1.4000   -0.0000    0.0000 N   0  0  0
   -0.0000   -0.0000    0.0000 C   0  0  0
    0.8229    1.1326    0.0000 C   0  0  0
    2.1544    0.7000    0.0000 N   0  0  0
    3.2870    1.5229    0.0000 C   0  0  0
    4.5660    0.9535    0.0000 C   0  0  0
    3.1407    2.9152    0.0000 O   0  0  0
    2.1544   -0.7000    0.0000 N   0  0  0
    0.8229   -1.1326    0.0000 C   0  0  0
    0.3903   -2.4641    0.0000 C   0  0  0
   -0.9791   -2.7552    0.0000 O   0  0  0
    1.3271   -3.5045    0.0000 O   0  0  0
  1  2  1
  2  3  2
  2  4  1
  4  5  1
  5  6  2
  6  7  1
  8  9  1
  8 10  2
  7  8  1
  7 11  1
 12  5  1
 11 12  2
 12 13  1
 13 14  2
 13 15  1
M  END
> <ZINC_ID>
4087578

> <Docking_Score>
-25.745

> <Vendor>
Synquest

$$$$
C4H7NO3
  MOLSOFT 06181908472D

  8  7  0  0  0  0  0  0  0  0999 V2000
    1.4000    0.0000    0.0000 C   0  0  0
    2.1000    1.2124    0.0000 C   0  0  0
    1.4000    2.4249    0.0000 O   0  0  0
    3.5000    1.2124    0.0000 N   0  0  0
    4.2000    2.4249    0.0000 C   0  0  0
    5.6000    2.4249    0.0000 C   0  0  0
    6.3000    1.2124    0.0000 O   0  0  0
    6.3000    3.6373    0.0000 O   0  0  0
  1  2  1
  2  3  2
  2  4  1
  4  5  1
  5  6  1
  6  7  2
  6  8  1
M  END
> <ZINC_ID>
1683660

> <Docking_Score>
-25.743

> <Vendor>
ACROS

$$$$
C8H9NO3
  MOLSOFT 06181908472D

 12 12  0  0  0  0  0  0  0  0999 V2000
   -1.4000    0.0000    0.0000 C   0  0  0
    0.0000    0.0000    0.0000 C   0  0  0
    0.7000    1.2124    0.0000 C   0  0  0
    2.1000    1.2124    0.0000 C   0  0  0
    2.8000   -0.0000    0.0000 N   0  0  0
    4.2000   -0.0000    0.0000 C   0  0  0
    4.9000    1.2124    0.0000 C   0  0  0
    4.2000    2.4249    0.0000 O   0  0  0
    6.3000    1.2124    0.0000 O   0  0  0
    2.1000   -1.2124    0.0000 C   0  0  0
    2.8000   -2.4249    0.0000 O   0  0  0
    0.7000   -1.2124    0.0000 C   0  0  0
  1  2  1
  2  3  1
  3  4  2
  4  5  1
  6  7  1
  7  8  2
  7  9  1
  5  6  1
  5 10  1
 10 11  2
 12  2  2
 10 12  1
M  END
> <ZINC_ID>
4388768

> <Docking_Score>
-25.737

> <Vendor>
Enamine

$$$$
C12H23NO3
  MOLSOFT 06181908472D

 16 15  0  0  0  0  0  0  0  0999 V2000
    1.4000    0.0000    0.0000 C   0  0  0
    2.1000    1.2124    0.0000 C   0  0  0
    3.5000    1.2124    0.0000 C   0  0  0
    4.2000    2.4249    0.0000 C   0  0  0
    5.6000    2.4249    0.0000 C   0  0  0
    6.3000    3.6373    0.0000 C   0  0  0
    7.7000    3.6373    0.0000 C   0  0  0
    8.4000    4.8497    0.0000 C   0  0  0
    9.8000    4.8497    0.0000 N   0  0  0
   10.5000    6.0622    0.0000 C   0  0  0
    9.8000    7.2746    0.0000 O   0  0  0
   11.9000    6.0622    0.0000 C   0  0  0
   12.6000    7.2746    0.0000 C   0  0  0
   14.0000    7.2746    0.0000 C   0  0  0
   14.7000    6.0622    0.0000 O   0  0  0
   14.7000    8.4870    0.0000 O   0  0  0
  1  2  1
  2  3  1
  3  4  1
  4  5  1
  5  6  1
  6  7  1
  7  8  1
  8  9  1
  9 10  1
 10 11  2
 10 12  1
 12 13  1
 13 14  1
 14 15  2
 14 16  1
M  END
> <ZINC_ID>
2566342

> <Docking_Score>
-25.734

> <Vendor>
Enamine

$$$$
C2H4O4
  MOLSOFT 06181908472D

  6  5  0  0  0  0  0  0  0  0999 V2000
    1.4000    0.0000    0.0000 O   0  0  0
    2.1000    1.2124    0.0000 C   0  0  0
    1.4000    2.4249    0.0000 O   0  0  0
    3.5000    1.2124    0.0000 C   0  0  0
    4.2000    0.0000    0.0000 O   0  0  0
    4.2000    2.4249    0.0000 O   0  0  0
  1  2  2
  2  3  1
  2  4  1
  4  5  1
  4  6  1
M  END
> <ZINC_ID>
6660936

> <Docking_Score>
-25.733

> <Vendor>
ACROS

$$$$
C5H8O3
  MOLSOFT 06181908472D

  8  7  0  0  0  0  0  0  0  0999 V2000
    1.4000    0.0000    0.0000 C   0  0  0
    2.1000    1.2124    0.0000 C   0  0  0
    1.4000    2.4249    0.0000 C   0  0  0
    3.5000    1.2124    0.0000 C   0  0  0
    4.2000    0.0000    0.0000 O   0  0  0
    4.2000    2.4249    0.0000 C   0  0  0
    3.5000    3.6373    0.0000 O   0  0  0
    5.6000    2.4249    0.0000 O   0  0  0
  1  2  1
  2  3  1
  2  4  1
  4  5  2
  4  6  1
  6  7  2
  6  8  1
M  END
> <ZINC_ID>
1532553

> <Docking_Score>
-25.728

> <Vendor>
ACROS

$$$$
C10H16N2O4
  MOLSOFT 06181908472D

 16 16  0  0  0  0  0  0  0  0999 V2000
   -2.1000    1.2124    0.0000 C   0  0  0
   -1.4000    0.0000    0.0000 C   0  0  0
   -2.1000   -1.2124    0.0000 O   0  0  0
    0.0000    0.0000    0.0000 N   0  0  0
    0.7000    1.2124    0.0000 C   0  0  0
    2.1000    1.2124    0.0000 C   0  0  0
    2.8000   -0.0000    0.0000 N   0  0  0
    4.2000   -0.0000    0.0000 C   0  0  0
    4.9000   -1.2124    0.0000 O   0  0  0
    4.9000    1.2124    0.0000 C   0  0  0
    6.3000    1.2124    0.0000 C   0  0  0
    7.0000    2.4249    0.0000 C   0  0  0
    6.3000    3.6373    0.0000 O   0  0  0
    8.4000    2.4249    0.0000 O   0  0  0
    2.1000   -1.2124    0.0000 C   0  0  0
    0.7000   -1.2124    0.0000 C   0  0  0
  1  2  1
  2  3  2
  2  4  1
  4  5  1
  5  6  1
  6  7  1
  8  9  2
  8 10  1
 10 11  1
 11 12  1
 12 13  2
 12 14  1
  7  8  1
  7 15  1
 16  4  1
 15 16  1
M  END
> <ZINC_ID>
386722

> <Docking_Score>
-25.709

> <Vendor>
Enamine

$$$$
C5H10N2O4
  MOLSOFT 06181908472D

 11 10  0  0  1  0  0  0  0  0999 V2000
    1.4000    0.0000    0.0000 N   0  0  0
    2.1000    1.2124    0.0000 C   0  0  1
    3.5000    1.2124    0.0000 C   0  0  0
    4.2000    2.4249    0.0000 C   0  0  2
    3.5000    3.6373    0.0000 N   0  0  0
    5.6000    2.4249    0.0000 C   0  0  0
    6.3000    1.2124    0.0000 O   0  0  0
    6.3000    3.6373    0.0000 O   0  0  0
    1.4000    2.4249    0.0000 C   0  0  0
    2.1000    3.6373    0.0000 O   0  0  0
   -0.0000    2.4249    0.0000 O   0  0  0
  2  1  1  6
  3  4  1
  4  5  1  6
  4  6  1
  6  7  2
  6  8  1
  2  3  1
  2  9  1
  9 10  2
  9 11  1
M  END
> <ZINC_ID>
1689055

> <Docking_Score>
-25.709

> <Vendor>
Aksci

$$$$
C3H10NO3P
  MOLSOFT 06181908472D

  8  7  0  0  0  0  0  0  0  0999 V2000
    1.4000    0.0000    0.0000 N   0  0  0
    2.1000    1.2124    0.0000 C   0  0  0
    3.5000    1.2124    0.0000 C   0  0  0
    4.2000    2.4249    0.0000 C   0  0  0
    5.6000    2.4249    0.0000 P   0  0  0
    5.6000    3.8249    0.0000 O   0  0  0
    5.6000    1.0249    0.0000 O   0  0  0
    7.0000    2.4249    0.0000 O   0  0  0
  1  2  1
  2  3  1
  3  4  1
  4  5  1
  5  6  2
  5  7  1
  5  8  1
M  END
> <ZINC_ID>
19737048

> <Docking_Score>
-25.708

> <Vendor>
Combiblocks

$$$$
C5H5NO5S
  MOLSOFT 06181908472D

 12 12  0  0  0  0  0  0  0  0999 V2000
   -1.4000   -1.4000    0.0000 N   0  0  0
   -1.4000   -0.0000    0.0000 S   0  0  0
   -1.4000    1.4000    0.0000 O   0  0  0
   -2.8000   -0.0000    0.0000 O   0  0  0
   -0.0000   -0.0000    0.0000 C   0  0  0
    0.8229    1.1326    0.0000 C   0  0  0
    2.1544    0.7000    0.0000 C   0  0  0
    2.1544   -0.7000    0.0000 C   0  0  0
    3.2870   -1.5229    0.0000 C   0  0  0
    3.1407   -2.9152    0.0000 O   0  0  0
    4.5660   -0.9535    0.0000 O   0  0  0
    0.8229   -1.1326    0.0000 O   0  0  0
  1  2  1
  2  3  2
  2  4  2
  2  5  1
  5  6  2
  6  7  1
  7  8  2
  9 10  2
  9 11  1
  8  9  1
 12  5  1
  8 12  1
M  END
> <ZINC_ID>
8731895

> <Docking_Score>
-25.706

> <Vendor>
Enamine

$$$$
C4H8O3
  MOLSOFT 06181908472D

  7  6  0  0  1  0  0  0  0  0999 V2000
    1.4000    0.0000    0.0000 C   0  0  0
    2.1000    1.2124    0.0000 C   0  0  1
    1.4000    2.4249    0.0000 O   0  0  0
    3.5000    1.2124    0.0000 C   0  0  0
    4.2000    2.4249    0.0000 C   0  0  0
    3.5000    3.6373    0.0000 O   0  0  0
    5.6000    2.4249    0.0000 O   0  0  0
  2  1  1  1
  2  3  1
  2  4  1
  4  5  1
  5  6  2
  5  7  1
M  END
> <ZINC_ID>
895486

> <Docking_Score>
-25.703

> <Vendor>
Aksci

$$$$
C6H10O3
  MOLSOFT 06181908472D

  9  8  0  0  1  0  0  0  0  0999 V2000
    1.4000    0.0000    0.0000 C   0  0  0
    2.1000    1.2124    0.0000 C   0  0  0
    3.5000    1.2124    0.0000 C   0  0  2
    4.2000    0.0000    0.0000 C   0  0  0
    4.2000    2.4249    0.0000 C   0  0  0
    3.5000    3.6373    0.0000 O   0  0  0
    5.6000    2.4249    0.0000 C   0  0  0
    6.3000    1.2124    0.0000 O   0  0  0
    6.3000    3.6373    0.0000 O   0  0  0
  1  2  1
  2  3  1
  3  4  1  1
  3  5  1
  5  6  2
  5  7  1
  7  8  2
  7  9  1
M  END
> <ZINC_ID>
1532715

> <Docking_Score>
-25.697

> <Vendor>
Sialbb

$$$$
C3H4O4
  MOLSOFT 06181908472D

  7  6  0  0  0  0  0  0  0  0999 V2000
    1.4000    0.0000    0.0000 C   0  0  0
    2.1000    1.2124    0.0000 O   0  0  0
    3.5000    1.2124    0.0000 C   0  0  0
    4.2000    0.0000    0.0000 O   0  0  0
    4.2000    2.4249    0.0000 C   0  0  0
    3.5000    3.6373    0.0000 O   0  0  0
    5.6000    2.4249    0.0000 O   0  0  0
  1  2  1
  2  3  1
  3  4  2
  3  5  1
  5  6  2
  5  7  1
M  END
> <ZINC_ID>
1706619

> <Docking_Score>
-25.693

> <Vendor>
Combiblocks

$$$$
C5H9NO3
  MOLSOFT 06181908472D

  9  8  0  0  0  0  0  0  0  0999 V2000
    1.4000    0.0000    0.0000 C   0  0  0
    2.1000    1.2124    0.0000 N   0  0  0
    3.5000    1.2124    0.0000 C   0  0  0
    4.2000    0.0000    0.0000 O   0  0  0
    4.2000    2.4249    0.0000 C   0  0  0
    5.6000    2.4249    0.0000 C   0  0  0
    6.3000    3.6373    0.0000 C   0  0  0
    5.6000    4.8497    0.0000 O   0  0  0
    7.7000    3.6373    0.0000 O   0  0  0
  1  2  1
  2  3  1
  3  4  2
  3  5  1
  5  6  1
  6  7  1
  7  8  2
  7  9  1
M  END
> <ZINC_ID>
409891

> <Docking_Score>
-25.654

> <Vendor>
Aksci

$$$$
C7H8ClNO4S2
  MOLSOFT 06181908472D

 15 15  0  0  0  0  0  0  0  0999 V2000
   -3.5000    1.2124    0.0000 C   0  0  0
   -2.8000   -0.0000    0.0000 N   0  0  0
   -3.5000   -1.2124    0.0000 C   0  0  0
   -4.9000   -1.2124    0.0000 C   0  0  0
   -5.6000   -0.0000    0.0000 O   0  0  0
   -5.6000   -2.4249    0.0000 O   0  0  0
   -1.4000   -0.0000    0.0000 S   0  0  0
   -1.4000   -1.4000    0.0000 O   0  0  0
   -1.4000    1.4000    0.0000 O   0  0  0
   -0.0000   -0.0000    0.0000 C   0  0  0
    0.8229    1.1326    0.0000 C   0  0  0
    2.1544    0.7000    0.0000 C   0  0  0
    2.1544   -0.7000    0.0000 C   0  0  0
    3.2870   -1.5229    0.0000 Cl  0  0  0
    0.8229   -1.1326    0.0000 S   0  0  0
  1  2  1
  3  4  1
  4  5  2
  4  6  1
  2  3  1
  2  7  1
  7  8  2
  7  9  2
  7 10  1
 10 11  2
 11 12  1
 12 13  2
 13 14  1
 15 10  1
 13 15  1
M  END
> <ZINC_ID>
3888170

> <Docking_Score>
-25.619

> <Vendor>
Enamine

$$$$
C5H9NO3
  MOLSOFT 06181908472D

  9  8  0  0  0  0  0  0  0  0999 V2000
    1.4000    0.0000    0.0000 C   0  0  0
    2.1000    1.2124    0.0000 C   0  0  0
    1.4000    2.4249    0.0000 O   0  0  0
    3.5000    1.2124    0.0000 N   0  0  0
    4.2000    0.0000    0.0000 C   0  0  0
    4.2000    2.4249    0.0000 C   0  0  0
    5.6000    2.4249    0.0000 C   0  0  0
    6.3000    1.2124    0.0000 O   0  0  0
    6.3000    3.6373    0.0000 O   0  0  0
  1  2  1
  2  3  2
  2  4  1
  4  5  1
  4  6  1
  6  7  1
  7  8  2
  7  9  1
M  END
> <ZINC_ID>
12480427

> <Docking_Score>
-25.616

> <Vendor>
Enamine

$$$$
C7H11NO3
  MOLSOFT 06181908472D

 11 11  0  0  0  0  0  0  0  0999 V2000
   -6.3000   -1.2124    0.0000 O   0  0  0
   -5.6000   -2.4249    0.0000 C   0  0  0
   -6.3000   -3.6373    0.0000 O   0  0  0
   -4.2000   -2.4249    0.0000 C   0  0  0
   -3.5000   -1.2124    0.0000 C   0  0  0
   -2.1000   -1.2124    0.0000 N   0  0  0
   -1.4000   -0.0000    0.0000 C   0  0  0
   -2.1000    1.2124    0.0000 O   0  0  0
    0.0000    0.0000    0.0000 C   0  0  0
    1.2124    0.7000    0.0000 C   0  0  0
    1.2124   -0.7000    0.0000 C   0  0  0
  1  2  2
  2  3  1
  2  4  1
  4  5  1
  5  6  1
  6  7  1
  7  8  2
  7  9  1
  9 10  1
 11  9  1
 10 11  1
M  END
> <ZINC_ID>
11891614

> <Docking_Score>
-25.612

> <Vendor>
Enamine

$$$$
C8H14N2O4
  MOLSOFT 06181908472D

 14 13  0  0  0  0  0  0  0  0999 V2000
    1.4000    0.0000    0.0000 C   0  0  0
    2.1000    1.2124    0.0000 C   0  0  0
    1.4000    2.4249    0.0000 O   0  0  0
    3.5000    1.2124    0.0000 N   0  0  0
    4.2000    2.4249    0.0000 C   0  0  0
    5.6000    2.4249    0.0000 C   0  0  0
    6.3000    3.6373    0.0000 N   0  0  0
    7.7000    3.6373    0.0000 C   0  0  0
    8.4000    2.4249    0.0000 O   0  0  0
    8.4000    4.8497    0.0000 C   0  0  0
    9.8000    4.8497    0.0000 C   0  0  0
   10.5000    6.0622    0.0000 C   0  0  0
    9.8000    7.2746    0.0000 O   0  0  0
   11.9000    6.0622    0.0000 O   0  0  0
  1  2  1
  2  3  2
  2  4  1
  4  5  1
  5  6  1
  6  7  1
  7  8  1
  8  9  2
  8 10  1
 10 11  1
 11 12  1
 12 13  2
 12 14  1
M  END
> <ZINC_ID>
11949009

> <Docking_Score>
-25.604

> <Vendor>
Enamine

$$$$
C3H6N2O3
  MOLSOFT 06181908472D

  8  7  0  0  0  0  0  0  0  0999 V2000
    1.4000    0.0000    0.0000 N   0  0  0
    2.1000    1.2124    0.0000 C   0  0  0
    1.4000    2.4249    0.0000 O   0  0  0
    3.5000    1.2124    0.0000 N   0  0  0
    4.2000    2.4249    0.0000 C   0  0  0
    5.6000    2.4249    0.0000 C   0  0  0
    6.3000    1.2124    0.0000 O   0  0  0
    6.3000    3.6373    0.0000 O   0  0  0
  1  2  1
  2  3  2
  2  4  1
  4  5  1
  5  6  1
  6  7  2
  6  8  1
M  END
> <ZINC_ID>
1464311

> <Docking_Score>
-25.597

> <Vendor>
Combiblocks

$$$$
C5H9NO3
  MOLSOFT 06181908472D

  9  8  0  0  0  0  0  0  0  0999 V2000
    1.4000    0.0000    0.0000 C   0  0  0
    2.1000    1.2124    0.0000 C   0  0  0
    1.4000    2.4249    0.0000 O   0  0  0
    3.5000    1.2124    0.0000 N   0  0  0
    4.2000    2.4249    0.0000 C   0  0  0
    5.6000    2.4249    0.0000 C   0  0  0
    6.3000    3.6373    0.0000 C   0  0  0
    5.6000    4.8497    0.0000 O   0  0  0
    7.7000    3.6373    0.0000 O   0  0  0
  1  2  1
  2  3  2
  2  4  1
  4  5  1
  5  6  1
  6  7  1
  7  8  2
  7  9  1
M  END
> <ZINC_ID>
399128

> <Docking_Score>
-25.596

> <Vendor>
Sialbb

$$$$
C6H9NO3
  MOLSOFT 06181908472D

 10 10  0  0  0  0  0  0  0  0999 V2000
   -3.5000   -3.6373    0.0000 O   0  0  0
   -4.2000   -2.4249    0.0000 C   0  0  0
   -5.6000   -2.4249    0.0000 O   0  0  0
   -3.5000   -1.2124    0.0000 C   0  0  0
   -2.1000   -1.2124    0.0000 N   0  0  0
   -1.4000   -0.0000    0.0000 C   0  0  0
   -2.1000    1.2124    0.0000 O   0  0  0
    0.0000    0.0000    0.0000 C   0  0  0
    1.2124    0.7000    0.0000 C   0  0  0
    1.2124   -0.7000    0.0000 C   0  0  0
  1  2  2
  2  3  1
  2  4  1
  4  5  1
  5  6  1
  6  7  2
  6  8  1
  8  9  1
 10  8  1
  9 10  1
M  END
> <ZINC_ID>
1845360

> <Docking_Score>
-25.574

> <Vendor>
Sialbb

$$$$
C9H14N2O4
  MOLSOFT 06181908472D

 15 15  0  0  1  0  0  0  0  0999 V2000
   -2.1000    1.2124    0.0000 N   0  0  0
   -1.4000   -0.0000    0.0000 C   0  0  0
   -2.1000   -1.2124    0.0000 O   0  0  0
   -0.0000   -0.0000    0.0000 C   0  0  1
    0.8229    1.1326    0.0000 C   0  0  0
    2.1544    0.7000    0.0000 C   0  0  0
    2.1544   -0.7000    0.0000 C   0  0  0
    0.8229   -1.1326    0.0000 N   0  0  0
    0.3903   -2.4641    0.0000 C   0  0  0
   -0.9791   -2.7552    0.0000 O   0  0  0
    1.3271   -3.5045    0.0000 C   0  0  0
    0.8944   -4.8360    0.0000 C   0  0  0
    1.8312   -5.8764    0.0000 C   0  0  0
    3.2006   -5.5853    0.0000 O   0  0  0
    1.3986   -7.2079    0.0000 O   0  0  0
  1  2  1
  2  3  2
  4  2  1  1
  4  5  1
  5  6  1
  6  7  1
  8  4  1
  7  8  1
  8  9  1
  9 10  2
  9 11  1
 11 12  1
 12 13  1
 13 14  2
 13 15  1
M  END
> <ZINC_ID>
376528

> <Docking_Score>
-25.568

> <Vendor>
Aksci

$$$$
C6H12O6
  MOLSOFT 06181908472D

 12 11  0  0  1  0  0  0  0  0999 V2000
    1.4000    0.0000    0.0000 C   0  0  0
    2.1000    1.2124    0.0000 C   0  0  2
    1.4000    2.4249    0.0000 O   0  0  0
    3.5000    1.2124    0.0000 C   0  0  1
    4.2000    0.0000    0.0000 O   0  0  0
    4.2000    2.4249    0.0000 C   0  0  1
    3.5000    3.6373    0.0000 O   0  0  0
    5.6000    2.4249    0.0000 C   0  0  2
    6.3000    1.2124    0.0000 O   0  0  0
    6.3000    3.6373    0.0000 C   0  0  0
    5.6000    4.8497    0.0000 O   0  0  0
    7.7000    3.6373    0.0000 O   0  0  0
  2  1  1  6
  2  3  1
  2  4  1
  4  5  1  6
  4  6  1
  6  7  1  1
  6  8  1
  8  9  1  1
  8 10  1
 10 11  2
 10 12  1
M  END
> <ZINC_ID>
901090

> <Docking_Score>
-25.565

> <Vendor>
Sialbb

$$$$
C3H5NO4
  MOLSOFT 06181908472D

  8  7  0  0  0  0  0  0  0  0999 V2000
    1.4000    0.0000    0.0000 N   0  0  0
    2.1000    1.2124    0.0000 C   0  0  0
    1.4000    2.4249    0.0000 C   0  0  0
    2.1000    3.6373    0.0000 O   0  0  0
   -0.0000    2.4249    0.0000 O   0  0  0
    3.5000    1.2124    0.0000 C   0  0  0
    4.2000    0.0000    0.0000 O   0  0  0
    4.2000    2.4249    0.0000 O   0  0  0
  1  2  1
  3  4  2
  3  5  1
  2  3  1
  2  6  1
  6  7  2
  6  8  1
M  END
> <ZINC_ID>
895421

> <Docking_Score>
-25.564

> <Vendor>
Aksci

$$$$
C12H12N2O3S
  MOLSOFT 06181908472D

 18 19  0  0  0  0  0  0  0  0999 V2000
   -1.4000   -0.0000    0.0000 C   0  0  0
   -0.0000   -0.0000    0.0000 C   0  0  0
    0.8229    1.1326    0.0000 N   0  0  0
    2.1544    0.7000    0.0000 C   0  0  0
    3.2870    1.5229    0.0000 C   0  0  0
    3.2870    2.9229    0.0000 C   0  0  0
    4.6185    3.3555    0.0000 C   0  0  0
    5.4414    2.2229    0.0000 C   0  0  0
    6.8414    2.2229    0.0000 C   0  0  0
    4.6185    1.0903    0.0000 N   0  0  0
    5.0511   -0.2412    0.0000 C   0  0  0
    2.1544   -0.7000    0.0000 S   0  0  0
    0.8229   -1.1326    0.0000 C   0  0  0
    0.3903   -2.4641    0.0000 C   0  0  0
   -0.9791   -2.7552    0.0000 O   0  0  0
    1.3271   -3.5045    0.0000 C   0  0  0
    2.6965   -3.2134    0.0000 O   0  0  0
    0.8944   -4.8360    0.0000 O   0  0  0
  1  2  1
  2  3  1
  3  4  2
  5  6  2
  6  7  1
  7  8  2
  8  9  1
 10  5  1
  8 10  1
 10 11  1
  4  5  1
  4 12  1
 13  2  2
 12 13  1
 13 14  1
 14 15  2
 14 16  1
 16 17  2
 16 18  1
M  END
> <ZINC_ID>
12394743

> <Docking_Score>
-25.554

> <Vendor>
Enamine

$$$$
C14H26N4O5
  MOLSOFT 06181908472D

 23 22  0  0  1  0  0  0  0  0999 V2000
    1.4000    0.0000    0.0000 C   0  0  0
    2.1000    1.2124    0.0000 C   0  0  0
    1.4000    2.4249    0.0000 O   0  0  0
    3.5000    1.2124    0.0000 N   0  0  0
    4.2000    2.4249    0.0000 C   0  0  1
    3.5000    3.6373    0.0000 C   0  0  0
    2.1000    3.6373    0.0000 C   0  0  0
    1.4000    4.8497    0.0000 C   0  0  0
   -0.0000    4.8497    0.0000 C   0  0  0
   -0.7000    6.0622    0.0000 N   0  0  0
    5.6000    2.4249    0.0000 C   0  0  0
    6.3000    1.2124    0.0000 O   0  0  0
    6.3000    3.6373    0.0000 N   0  0  0
    7.7000    3.6373    0.0000 C   0  0  2
    8.4000    2.4249    0.0000 C   0  0  0
    8.4000    4.8497    0.0000 C   0  0  0
    7.7000    6.0622    0.0000 O   0  0  0
    9.8000    4.8497    0.0000 N   0  0  0
   10.5000    6.0622    0.0000 C   0  0  2
    9.8000    7.2746    0.0000 C   0  0  0
   11.9000    6.0622    0.0000 C   0  0  0
   12.6000    4.8497    0.0000 O   0  0  0
   12.6000    7.2746    0.0000 O   0  0  0
  1  2  1
  2  3  2
  2  4  1
  4  5  1
  6  7  1
  7  8  1
  8  9  1
  9 10  1
  5  6  1  1
  5 11  1
 11 12  2
 11 13  1
 13 14  1
 14 15  1  1
 14 16  1
 16 17  2
 16 18  1
 18 19  1
 19 20  1  6
 19 21  1
 21 22  2
 21 23  1
M  END
> <ZINC_ID>
8076118

> <Docking_Score>
-25.553

> <Vendor>
Combiblocks

$$$$
C10H11N3O3
  MOLSOFT 06181908472D

 16 17  0  0  0  0  0  0  0  0999 V2000
   -2.1000   -1.2124    0.0000 C   0  0  0
   -1.4000   -0.0000    0.0000 C   0  0  0
   -0.0000   -0.0000    0.0000 C   0  0  0
    0.8229    1.1326    0.0000 O   0  0  0
    2.1544    0.7000    0.0000 N   0  0  0
    2.1544   -0.7000    0.0000 C   0  0  0
    3.2870   -1.5229    0.0000 C   0  0  0
    3.1407   -2.9152    0.0000 O   0  0  0
    4.5660   -0.9535    0.0000 O   0  0  0
    0.8229   -1.1326    0.0000 C   0  0  0
    0.3903   -2.4641    0.0000 C   0  0  0
    1.3271   -3.5045    0.0000 C   0  0  0
    2.7194   -3.3582    0.0000 C   0  0  0
    3.2888   -4.6371    0.0000 N   0  0  0
    2.2484   -5.5739    0.0000 N   0  0  0
    1.0360   -4.8739    0.0000 C   0  0  0
  1  2  1
  2  3  1
  3  4  1
  4  5  1
  5  6  2
  7  8  2
  7  9  1
  6  7  1
 10  3  2
  6 10  1
 10 11  1
 11 12  1
 12 13  1
 13 14  2
 14 15  1
 16 12  2
 15 16  1
M  END
> <ZINC_ID>
6658185

> <Docking_Score>
-25.551

> <Vendor>
Combiblocks

$$$$
C9H10N4O2
  MOLSOFT 06181908472D

 15 16  0  0  0  0  0  0  0  0999 V2000
   -1.4000    0.0000    0.0000 C   0  0  0
    0.0000    0.0000    0.0000 C   0  0  0
    0.7000    1.2124    0.0000 C   0  0  0
    2.1000    1.2124    0.0000 C   0  0  0
    2.8000    2.4249    0.0000 C   0  0  0
    2.8000   -0.0000    0.0000 N   0  0  0
    4.1694   -0.2911    0.0000 N   0  0  0
    4.3157   -1.6834    0.0000 C   0  0  0
    5.5282   -2.3834    0.0000 C   0  0  0
    6.7406   -1.6834    0.0000 C   0  0  0
    6.7406   -0.2834    0.0000 O   0  0  0
    7.9531   -2.3834    0.0000 O   0  0  0
    3.0368   -2.2528    0.0000 N   0  0  0
    2.1000   -1.2124    0.0000 C   0  0  0
    0.7000   -1.2124    0.0000 N   0  0  0
  1  2  1
  2  3  1
  3  4  2
  4  5  1
  4  6  1
  6  7  1
  7  8  2
  9 10  1
 10 11  2
 10 12  1
  8  9  1
  8 13  1
 14  6  1
 13 14  2
 15  2  2
 14 15  1
M  END
> <ZINC_ID>
260783

> <Docking_Score>
-25.536

> <Vendor>
Sialbb

$$$$
C14H16N2O3S
  MOLSOFT 06181908472D

 20 22  0  0  1  0  0  0  0  0999 V2000
   -1.4000    0.0000    0.0000 C   0  0  0
    0.0000    0.0000    0.0000 C   0  0  1
    0.7000    1.2124    0.0000 C   0  0  0
    2.1000    1.2124    0.0000 C   0  0  0
    2.8000   -0.0000    0.0000 C   0  0  0
    2.1000   -1.2124    0.0000 C   0  0  0
    3.0368   -2.2528    0.0000 S   0  0  0
    4.3157   -1.6834    0.0000 C   0  0  0
    5.5947   -2.2528    0.0000 N   0  0  0
    6.7273   -1.4299    0.0000 C   0  0  0
    8.0063   -1.9994    0.0000 C   0  0  0
    9.1389   -1.1765    0.0000 C   0  0  0
   10.4179   -1.7459    0.0000 C   0  0  0
   10.5642   -3.1382    0.0000 O   0  0  0
   11.5505   -0.9230    0.0000 O   0  0  0
    6.5810   -0.0376    0.0000 N   0  0  0
    5.3020    0.5318    0.0000 C   0  0  0
    5.1557    1.9242    0.0000 O   0  0  0
    4.1694   -0.2911    0.0000 C   0  0  0
    0.7000   -1.2124    0.0000 C   0  0  0
  2  1  1  1
  2  3  1
  3  4  1
  4  5  1
  5  6  2
  7  8  1
  8  9  1
  9 10  2
 11 12  1
 12 13  1
 13 14  2
 13 15  1
 10 11  1
 10 16  1
 16 17  1
 17 18  2
 19  5  1
 19  8  2
 17 19  1
  6  7  1
 20  2  1
  6 20  1
M  END
> <ZINC_ID>
3264016

> <Docking_Score>
-25.533

> <Vendor>
Enamine

$$$$
C7H11NO4
  MOLSOFT 06181908472D

 12 12  0  0  1  0  0  0  0  0999 V2000
   -2.1000    1.2124    0.0000 O   0  0  0
   -1.4000   -0.0000    0.0000 C   0  0  0
   -2.1000   -1.2124    0.0000 O   0  0  0
   -0.0000   -0.0000    0.0000 C   0  0  2
    0.8229    1.1326    0.0000 C   0  0  0
    2.1544    0.7000    0.0000 C   0  0  0
    3.2870    1.5229    0.0000 O   0  0  0
    2.1544   -0.7000    0.0000 N   0  0  0
    3.2870   -1.5229    0.0000 C   0  0  0
    4.5660   -0.9535    0.0000 C   0  0  0
    5.6986   -1.7764    0.0000 O   0  0  0
    0.8229   -1.1326    0.0000 C   0  0  0
  1  2  2
  2  3  1
  4  2  1  6
  4  5  1
  5  6  1
  6  7  2
  6  8  1
  9 10  1
 10 11  1
  8  9  1
 12  4  1
  8 12  1
M  END
> <ZINC_ID>
3643327

> <Docking_Score>
-25.531

> <Vendor>
Combiblocks

$$$$
C9H8ClN3O3
  MOLSOFT 06181908472D

 16 17  0  0  0  0  0  0  0  0999 V2000
   -1.4000   -0.0000    0.0000 C   0  0  0
   -0.0000   -0.0000    0.0000 C   0  0  0
    0.8229    1.1326    0.0000 O   0  0  0
    2.1544    0.7000    0.0000 N   0  0  0
    2.1544   -0.7000    0.0000 C   0  0  0
    3.2870   -1.5229    0.0000 C   0  0  0
    3.1407   -2.9152    0.0000 O   0  0  0
    4.5660   -0.9535    0.0000 O   0  0  0
    0.8229   -1.1326    0.0000 C   0  0  0
    0.3903   -2.4641    0.0000 C   0  0  0
    1.3271   -3.5045    0.0000 N   0  0  0
    2.7194   -3.3582    0.0000 C   0  0  0
    3.2888   -4.6371    0.0000 C   0  0  0
    4.6582   -4.9282    0.0000 Cl  0  0  0
    2.2484   -5.5739    0.0000 C   0  0  0
    1.0360   -4.8739    0.0000 N   0  0  0
  1  2  1
  2  3  1
  3  4  1
  4  5  2
  6  7  2
  6  8  1
  5  6  1
  9  2  2
  5  9  1
  9 10  1
 10 11  1
 11 12  1
 12 13  2
 13 14  1
 13 15  1
 16 11  1
 15 16  2
M  END
> <ZINC_ID>
6658333

> <Docking_Score>
-25.513

> <Vendor>
Enamine

$$$$
C6H7NO3
  MOLSOFT 06181908472D

 10 10  0  0  0  0  0  0  0  0999 V2000
   -1.4000   -0.0000    0.0000 C   0  0  0
   -0.0000   -0.0000    0.0000 C   0  0  0
    0.8229    1.1326    0.0000 C   0  0  0
    2.1544    0.7000    0.0000 C   0  0  0
    3.2870    1.5229    0.0000 C   0  0  0
    3.1407    2.9152    0.0000 C   0  0  0
    1.8617    3.4847    0.0000 O   0  0  0
    4.2733    3.7381    0.0000 O   0  0  0
    2.1544   -0.7000    0.0000 O   0  0  0
    0.8229   -1.1326    0.0000 N   0  0  0
  1  2  1
  2  3  1
  3  4  2
  5  6  1
  6  7  2
  6  8  1
  4  5  1
  4  9  1
 10  2  2
  9 10  1
M  END
> <ZINC_ID>
403274

> <Docking_Score>
-25.509

> <Vendor>
Synquest

$$$$
C3H4O3
  MOLSOFT 06181908472D

  6  6  0  0  1  0  0  0  0  0999 V2000
   -2.1000    1.2124    0.0000 O   0  0  0
   -1.4000   -0.0000    0.0000 C   0  0  0
   -2.1000   -1.2124    0.0000 O   0  0  0
    0.0000    0.0000    0.0000 C   0  0  1
    1.2124    0.7000    0.0000 C   0  0  0
    1.2124   -0.7000    0.0000 O   0  0  0
  1  2  2
  2  3  1
  4  2  1  1
  4  5  1
  6  4  1
  5  6  1
M  END
> <ZINC_ID>
1726126

> <Docking_Score>
-25.506

> <Vendor>
Aksci

$$$$
C15H21NO3
  MOLSOFT 06181908472D

 19 19  0  0  1  0  0  0  0  0999 V2000
   -3.5000   -1.2124    0.0000 C   0  0  0
   -2.1000   -1.2124    0.0000 C   0  0  0
   -1.4000    0.0000    0.0000 C   0  0  0
    0.0000    0.0000    0.0000 C   0  0  1
    0.7000    1.2124    0.0000 C   0  0  0
    2.1000    1.2124    0.0000 C   0  0  0
    2.8000   -0.0000    0.0000 C   0  0  0
    2.1000   -1.2124    0.0000 C   0  0  2
    2.8000   -2.4249    0.0000 C   0  0  0
    4.2000   -2.4249    0.0000 C   0  0  0
    4.9000   -3.6373    0.0000 C   0  0  0
    0.7000   -1.2124    0.0000 N   0  0  0
   -0.0000   -2.4249    0.0000 C   0  0  0
   -1.4000   -2.4249    0.0000 O   0  0  0
    0.7000   -3.6373    0.0000 C   0  0  0
   -0.0000   -4.8497    0.0000 C   0  0  0
    0.7000   -6.0622    0.0000 C   0  0  0
    2.1000   -6.0622    0.0000 O   0  0  0
   -0.0000   -7.2746    0.0000 O   0  0  0
  1  2  2
  2  3  1
  4  3  1  1
  4  5  1
  5  6  2
  6  7  1
  7  8  1
  9 10  1
 10 11  2
  8  9  1  6
 12  4  1
  8 12  1
 12 13  1
 13 14  2
 13 15  1
 15 16  1
 16 17  1
 17 18  2
 17 19  1
M  END
> <ZINC_ID>
296324

> <Docking_Score>
-25.486

> <Vendor>
Aksci

$$$$
C7H10N2O3
  MOLSOFT 06181908472D

 12 12  0  0  0  0  0  0  0  0999 V2000
   -4.2000   -0.0000    0.0000 O   0  0  0
   -3.5000   -1.2124    0.0000 C   0  0  0
   -4.2000   -2.4249    0.0000 O   0  0  0
   -2.1000   -1.2124    0.0000 C   0  0  0
   -1.4000    0.0000    0.0000 C   0  0  0
    0.0000    0.0000    0.0000 C   0  0  0
    0.7000    1.2124    0.0000 N   0  0  0
    2.1000    1.2124    0.0000 N   0  0  0
    2.8000   -0.0000    0.0000 C   0  0  0
    4.2000   -0.0000    0.0000 O   0  0  0
    2.1000   -1.2124    0.0000 C   0  0  0
    0.7000   -1.2124    0.0000 C   0  0  0
  1  2  2
  2  3  1
  2  4  1
  4  5  1
  5  6  1
  6  7  2
  7  8  1
  8  9  1
  9 10  2
  9 11  1
 12  6  1
 11 12  1
M  END
> <ZINC_ID>
180523

> <Docking_Score>
-25.474

> <Vendor>
Sialbb

$$$$
C9H15NO4
  MOLSOFT 06181908472D

 14 14  0  0  1  0  0  0  0  0999 V2000
   -3.5000    1.2124    0.0000 C   0  0  0
   -2.1000    1.2124    0.0000 C   0  0  0
   -1.4000   -0.0000    0.0000 C   0  0  1
   -2.1000   -1.2124    0.0000 C   0  0  0
   -3.5000   -1.2124    0.0000 O   0  0  0
   -0.0000   -0.0000    0.0000 N   0  0  0
    0.8229    1.1326    0.0000 C   0  0  0
    2.1544    0.7000    0.0000 C   0  0  1
    3.2870    1.5229    0.0000 C   0  0  0
    4.5660    0.9535    0.0000 O   0  0  0
    3.1407    2.9152    0.0000 O   0  0  0
    2.1544   -0.7000    0.0000 C   0  0  0
    0.8229   -1.1326    0.0000 C   0  0  0
    0.3903   -2.4641    0.0000 O   0  0  0
  1  2  1
  3  2  1  6
  4  5  1
  3  4  1
  3  6  1
  6  7  1
  7  8  1
  9 10  2
  9 11  1
  8  9  1  1
  8 12  1
 13  6  1
 12 13  1
 13 14  2
M  END
> <ZINC_ID>
4235143

> <Docking_Score>
-25.468

> <Vendor>
Combiblocks

$$$$
C5H8O3
  MOLSOFT 06181908472D

  8  7  0  0  0  0  0  0  0  0999 V2000
    1.4000    0.0000    0.0000 C   0  0  0
    2.1000    1.2124    0.0000 C   0  0  0
    3.5000    1.2124    0.0000 C   0  0  0
    4.2000    0.0000    0.0000 O   0  0  0
    4.2000    2.4249    0.0000 C   0  0  0
    5.6000    2.4249    0.0000 C   0  0  0
    6.3000    1.2124    0.0000 O   0  0  0
    6.3000    3.6373    0.0000 O   0  0  0
  1  2  1
  2  3  1
  3  4  2
  3  5  1
  5  6  1
  6  7  2
  6  8  1
M  END
> <ZINC_ID>
901313

> <Docking_Score>
-25.466

> <Vendor>
Combiblocks

$$$$
C7H14N2O4S
  MOLSOFT 06181908472D

 14 13  0  0  1  0  0  0  0  0999 V2000
    1.4000    0.0000    0.0000 N   0  0  0
    2.1000    1.2124    0.0000 C   0  0  2
    3.5000    1.2124    0.0000 C   0  0  0
    4.2000    2.4249    0.0000 S   0  0  0
    5.6000    2.4249    0.0000 C   0  0  0
    6.3000    3.6373    0.0000 C   0  0  0
    7.7000    3.6373    0.0000 C   0  0  1
    8.4000    2.4249    0.0000 N   0  0  0
    8.4000    4.8497    0.0000 C   0  0  0
    7.7000    6.0622    0.0000 O   0  0  0
    9.8000    4.8497    0.0000 O   0  0  0
    1.4000    2.4249    0.0000 C   0  0  0
    2.1000    3.6373    0.0000 O   0  0  0
   -0.0000    2.4249    0.0000 O   0  0  0
  2  1  1  1
  3  4  1
  4  5  1
  5  6  1
  6  7  1
  7  8  1  6
  7  9  1
  9 10  2
  9 11  1
  2  3  1
  2 12  1
 12 13  2
 12 14  1
M  END
> <ZINC_ID>
1708208

> <Docking_Score>
-25.464

> <Vendor>
Sialbb

$$$$
C4H6O3
  MOLSOFT 06181908472D

  7  7  0  0  1  0  0  0  0  0999 V2000
   -2.1000    1.2124    0.0000 O   0  0  0
   -1.4000   -0.0000    0.0000 C   0  0  0
   -2.1000   -1.2124    0.0000 O   0  0  0
    0.0000   -0.0000    0.0000 C   0  0  1
    0.9899    0.9899    0.0000 C   0  0  0
    1.9799    0.0000    0.0000 C   0  0  0
    0.9899   -0.9899    0.0000 O   0  0  0
  1  2  2
  2  3  1
  4  2  1  1
  4  5  1
  5  6  1
  7  4  1
  6  7  1
M  END
> <ZINC_ID>
16083112

> <Docking_Score>
-25.463

> <Vendor>
Synquest

$$$$
C11H12N2O3S
  MOLSOFT 06181908472D

 17 18  0  0  0  0  0  0  0  0999 V2000
   -1.4000   -0.0000    0.0000 C   0  0  0
   -0.0000   -0.0000    0.0000 C   0  0  0
    0.8229    1.1326    0.0000 S   0  0  0
    2.1544    0.7000    0.0000 C   0  0  0
    3.3668    1.4000    0.0000 N   0  0  0
    4.5792    0.7000    0.0000 C   0  0  0
    4.5792   -0.7000    0.0000 N   0  0  0
    5.7917   -1.4000    0.0000 C   0  0  0
    7.0041   -0.7000    0.0000 C   0  0  0
    8.2166   -1.4000    0.0000 C   0  0  0
    8.2166   -2.8000    0.0000 O   0  0  0
    9.4290   -0.7000    0.0000 O   0  0  0
    3.3668   -1.4000    0.0000 C   0  0  0
    3.3668   -2.8000    0.0000 O   0  0  0
    2.1544   -0.7000    0.0000 C   0  0  0
    0.8229   -1.1326    0.0000 C   0  0  0
    0.3903   -2.4641    0.0000 C   0  0  0
  1  2  1
  2  3  1
  3  4  1
  4  5  1
  5  6  2
  6  7  1
  8  9  1
  9 10  1
 10 11  2
 10 12  1
  7  8  1
  7 13  1
 13 14  2
 15  4  2
 13 15  1
 16  2  2
 15 16  1
 16 17  1
M  END
> <ZINC_ID>
783693

> <Docking_Score>
-25.454

> <Vendor>
Sialbb

$$$$
C5H5N3O4
  MOLSOFT 06181908472D

 12 12  0  0  0  0  0  0  0  0999 V2000
   -1.4000   -2.4249    0.0000 C   0  0  0
   -2.1000   -1.2124    0.0000 C   0  0  0
   -3.5000   -1.2124    0.0000 O   0  0  0
   -1.4000   -0.0000    0.0000 N   0  0  0
   -0.0000   -0.0000    0.0000 C   0  0  0
    0.8229    1.1326    0.0000 N   0  0  0
    2.1544    0.7000    0.0000 O   0  0  0
    2.1544   -0.7000    0.0000 N   0  0  0
    0.8229   -1.1326    0.0000 C   0  0  0
    0.3903   -2.4641    0.0000 C   0  0  0
   -0.9791   -2.7552    0.0000 O   0  0  0
    1.3271   -3.5045    0.0000 O   0  0  0
  1  2  1
  2  3  2
  2  4  1
  4  5  1
  5  6  2
  6  7  1
  7  8  1
  9  5  1
  8  9  2
  9 10  1
 10 11  2
 10 12  1
M  END
> <ZINC_ID>
1072664

> <Docking_Score>
-25.451

> <Vendor>
Sialbb

$$$$
C14H16N2O9S
  MOLSOFT 06181908472D

 26 27  0  0  1  0  0  0  0  0999 V2000
   -5.6000   -4.8497    0.0000 O   0  0  0
   -6.3000   -3.6373    0.0000 C   0  0  0
   -5.6000   -2.4249    0.0000 C   0  0  0
   -4.2000   -2.4249    0.0000 C   0  0  0
   -3.5000   -1.2124    0.0000 C   0  0  0
   -2.1000   -1.2124    0.0000 C   0  0  0
   -1.4000   -0.0000    0.0000 C   0  0  0
   -0.0000   -0.0000    0.0000 N   0  0  0
    0.8229    1.1326    0.0000 C   0  0  0
    0.3903    2.4641    0.0000 O   0  0  0
    2.1544    0.7000    0.0000 C   0  0  0
    2.1544   -0.7000    0.0000 C   0  0  0
    0.8229   -1.1326    0.0000 C   0  0  0
    0.3903   -2.4641    0.0000 O   0  0  0
   -7.7000   -3.6373    0.0000 O   0  0  0
   -8.4000   -4.8497    0.0000 N   0  0  0
   -7.8306   -6.1287    0.0000 C   0  0  0
   -6.4612   -6.4198    0.0000 O   0  0  0
   -8.8710   -7.0655    0.0000 C   0  0  0
  -10.0834   -6.3655    0.0000 C   0  0  2
  -11.3624   -6.9349    0.0000 S   0  0  0
  -10.7929   -8.2139    0.0000 O   0  0  0
  -11.9318   -5.6560    0.0000 O   0  0  0
  -12.6413   -7.5044    0.0000 O   0  0  0
   -9.7923   -4.9961    0.0000 C   0  0  0
  -10.7291   -3.9557    0.0000 O   0  0  0
  1  2  2
  3  4  1
  4  5  1
  5  6  1
  6  7  1
  7  8  1
  8  9  1
  9 10  2
  9 11  1
 11 12  2
 13  8  1
 12 13  1
 13 14  2
  2  3  1
  2 15  1
 15 16  1
 16 17  1
 17 18  2
 17 19  1
 19 20  1
 21 22  2
 21 23  2
 21 24  1
 20 21  1  6
 25 16  1
 20 25  1
 25 26  2
M  END
> <ZINC_ID>
2573773

> <Docking_Score>
-25.445

> <Vendor>
Chemimprex

$$$$
C7H8N2O4
  MOLSOFT 06181908472D

 13 13  0  0  0  0  0  0  0  0999 V2000
   -1.4000    0.0000    0.0000 C   0  0  0
    0.0000    0.0000    0.0000 C   0  0  0
    0.7000    1.2124    0.0000 C   0  0  0
    2.1000    1.2124    0.0000 N   0  0  0
    2.8000    2.4249    0.0000 C   0  0  0
    2.1000    3.6373    0.0000 C   0  0  0
    0.7000    3.6373    0.0000 O   0  0  0
    2.8000    4.8497    0.0000 O   0  0  0
    2.8000   -0.0000    0.0000 C   0  0  0
    4.2000   -0.0000    0.0000 O   0  0  0
    2.1000   -1.2124    0.0000 N   0  0  0
    0.7000   -1.2124    0.0000 C   0  0  0
   -0.0000   -2.4249    0.0000 O   0  0  0
  1  2  1
  2  3  2
  3  4  1
  5  6  1
  6  7  2
  6  8  1
  4  5  1
  4  9  1
  9 10  2
  9 11  1
 12  2  1
 11 12  1
 12 13  2
M  END
> <ZINC_ID>
396152

> <Docking_Score>
-25.429

> <Vendor>
Sialbb

$$$$
C7H11N5O3
  MOLSOFT 06181908472D

 15 16  0  0  0  0  0  0  0  0999 V2000
   -1.4000   -2.4249    0.0000 O   0  0  0
   -2.1000   -1.2124    0.0000 C   0  0  0
   -3.5000   -1.2124    0.0000 O   0  0  0
   -1.4000   -0.0000    0.0000 C   0  0  0
   -0.0000   -0.0000    0.0000 N   0  0  0
    0.8229    1.1326    0.0000 N   0  0  0
    2.1544    0.7000    0.0000 N   0  0  0
    2.1544   -0.7000    0.0000 C   0  0  0
    3.2870   -1.5229    0.0000 N   0  0  0
    4.5660   -0.9535    0.0000 C   0  0  0
    5.6986   -1.7764    0.0000 C   0  0  0
    5.5522   -3.1687    0.0000 O   0  0  0
    4.2733   -3.7381    0.0000 C   0  0  0
    3.1407   -2.9152    0.0000 C   0  0  0
    0.8229   -1.1326    0.0000 N   0  0  0
  1  2  2
  2  3  1
  2  4  1
  4  5  1
  5  6  1
  6  7  2
  7  8  1
  9 10  1
 10 11  1
 11 12  1
 12 13  1
 14  9  1
 13 14  1
  8  9  1
 15  5  1
  8 15  2
M  END
> <ZINC_ID>
1044468

> <Docking_Score>
-25.419

> <Vendor>
Synquest

$$$$
C4H6O3
  MOLSOFT 06181908472D

  7  6  0  0  0  0  0  0  0  0999 V2000
    1.4000    0.0000    0.0000 C   0  0  0
    2.1000    1.2124    0.0000 C   0  0  0
    3.5000    1.2124    0.0000 C   0  0  0
    4.2000    0.0000    0.0000 O   0  0  0
    4.2000    2.4249    0.0000 C   0  0  0
    3.5000    3.6373    0.0000 O   0  0  0
    5.6000    2.4249    0.0000 O   0  0  0
  1  2  1
  2  3  1
  3  4  2
  3  5  1
  5  6  2
  5  7  1
M  END
> <ZINC_ID>
1532540

> <Docking_Score>
-25.408

> <Vendor>
Combiblocks

$$$$
C8H8N2O6
  MOLSOFT 06181908472D

 16 16  0  0  0  0  0  0  0  0999 V2000
   -6.3000   -1.2124    0.0000 O   0  0  0
   -5.6000   -2.4249    0.0000 C   0  0  0
   -6.3000   -3.6373    0.0000 O   0  0  0
   -4.2000   -2.4249    0.0000 C   0  0  0
   -3.5000   -1.2124    0.0000 C   0  0  0
   -2.1000   -1.2124    0.0000 N   0  0  0
   -1.4000   -0.0000    0.0000 C   0  0  0
   -2.1000    1.2124    0.0000 O   0  0  0
   -0.0000   -0.0000    0.0000 C   0  0  0
    0.8229    1.1326    0.0000 C   0  0  0
    2.1544    0.7000    0.0000 C   0  0  0
    2.1544   -0.7000    0.0000 C   0  0  0
    3.2870   -1.5229    0.0000 N   0  3  0
    3.1407   -2.9152    0.0000 O   0  0  0
    4.5660   -0.9535    0.0000 O   0  5  0
    0.8229   -1.1326    0.0000 O   0  0  0
  1  2  2
  2  3  1
  2  4  1
  4  5  1
  5  6  1
  6  7  1
  7  8  2
  7  9  1
  9 10  2
 10 11  1
 11 12  2
 13 14  2
 13 15  1
 12 13  1
 16  9  1
 12 16  1
M  CHG  2  13   1  15  -1
M  END
> <ZINC_ID>
2647822

> <Docking_Score>
-25.408

> <Vendor>
Enamine

$$$$
C10H15NO3
  MOLSOFT 06181908472D

 14 15  0  0  1  0  0  0  0  0999 V2000
   -2.1000    1.2124    0.0000 O   0  0  0
   -1.4000   -0.0000    0.0000 C   0  0  0
   -2.1000   -1.2124    0.0000 O   0  0  0
   -0.0000   -0.0000    0.0000 C   0  0  1
    0.8229    1.1326    0.0000 C   0  0  0
    2.1544    0.7000    0.0000 C   0  0  0
    3.2870    1.5229    0.0000 O   0  0  0
    2.1544   -0.7000    0.0000 N   0  0  0
    3.2870   -1.5229    0.0000 C   0  0  0
    4.6185   -1.0903    0.0000 C   0  0  0
    5.4414   -2.2229    0.0000 C   0  0  0
    4.6185   -3.3555    0.0000 C   0  0  0
    3.2870   -2.9229    0.0000 C   0  0  0
    0.8229   -1.1326    0.0000 C   0  0  0
  1  2  2
  2  3  1
  4  2  1  1
  4  5  1
  5  6  1
  6  7  2
  6  8  1
  9 10  1
 10 11  1
 11 12  1
 13  9  1
 12 13  1
  8  9  1
 14  4  1
  8 14  1
M  END
> <ZINC_ID>
266732

> <Docking_Score>
-25.407

> <Vendor>
Sialbb

$$$$
C7H12O3
  MOLSOFT 06181908472D

 10  9  0  0  0  0  0  0  0  0999 V2000
    1.4000    0.0000    0.0000 C   0  0  0
    2.1000    1.2124    0.0000 C   0  0  0
    1.4000    2.4249    0.0000 C   0  0  0
    3.5000    1.2124    0.0000 C   0  0  0
    4.2000    0.0000    0.0000 O   0  0  0
    4.2000    2.4249    0.0000 C   0  0  0
    5.6000    2.4249    0.0000 C   0  0  0
    6.3000    3.6373    0.0000 C   0  0  0
    5.6000    4.8497    0.0000 O   0  0  0
    7.7000    3.6373    0.0000 O   0  0  0
  1  2  1
  2  3  1
  2  4  1
  4  5  2
  4  6  1
  6  7  1
  7  8  1
  8  9  2
  8 10  1
M  END
> <ZINC_ID>
1575049

> <Docking_Score>
-25.398

> <Vendor>
Aksci

$$$$
C5H8O4
  MOLSOFT 06181908472D

  9  9  0  0  1  0  0  0  0  0999 V2000
   -2.1000    1.2124    0.0000 O   0  0  0
   -1.4000    0.0000    0.0000 C   0  0  0
   -2.1000   -1.2124    0.0000 O   0  0  0
    0.0000    0.0000    0.0000 C   0  0  1
    0.7000    1.2124    0.0000 C   0  0  0
    2.1000    1.2124    0.0000 O   0  0  0
    2.8000   -0.0000    0.0000 C   0  0  0
    2.1000   -1.2124    0.0000 C   0  0  0
    0.7000   -1.2124    0.0000 O   0  0  0
  1  2  2
  2  3  1
  4  2  1  1
  4  5  1
  5  6  1
  6  7  1
  7  8  1
  9  4  1
  8  9  1
M  END
> <ZINC_ID>
20446297

> <Docking_Score>
-25.398

> <Vendor>
Combiblocks

$$$$
C6H4O3S
  MOLSOFT 06181908472D

 10 10  0  0  0  0  0  0  0  0999 V2000
   -1.4000   -2.4249    0.0000 O   0  0  0
   -2.1000   -1.2124    0.0000 C   0  0  0
   -3.5000   -1.2124    0.0000 O   0  0  0
   -1.4000   -0.0000    0.0000 C   0  0  0
   -2.1000    1.2124    0.0000 O   0  0  0
   -0.0000   -0.0000    0.0000 C   0  0  0
    0.8229    1.1326    0.0000 C   0  0  0
    2.1544    0.7000    0.0000 C   0  0  0
    2.1544   -0.7000    0.0000 C   0  0  0
    0.8229   -1.1326    0.0000 S   0  0  0
  1  2  2
  2  3  1
  2  4  1
  4  5  2
  4  6  1
  6  7  2
  7  8  1
  8  9  2
 10  6  1
  9 10  1
M  END
> <ZINC_ID>
2141008

> <Docking_Score>
-25.394

> <Vendor>
Alfa

$$$$
C4H5NO3
  MOLSOFT 06181908472D

  8  7  0  0  0  0  0  0  0  0999 V2000
    0.0000   -2.4249    0.0000 N   0  0  0
    0.7000   -1.2124    0.0000 C   0  0  0
    2.1000   -1.2124    0.0000 O   0  0  0
    0.0000    0.0000    0.0000 C   0  0  0
    0.7000    1.2124    0.0000 C   0  0  0
    2.1000    1.2124    0.0000 C   0  0  0
    2.8000    0.0000    0.0000 O   0  0  0
    2.8000    2.4249    0.0000 O   0  0  0
  1  2  1
  2  3  2
  2  4  1
  4  5  2
  5  6  1
  6  7  2
  6  8  1
M  END
> <ZINC_ID>
12362022

> <Docking_Score>
-25.394

> <Vendor>
Enamine

$$$$
C4H9NO4S
  MOLSOFT 06181908472D

 10  9  0  0  0  0  0  0  0  0999 V2000
    1.4000    0.0000    0.0000 C   0  0  0
    2.1000    1.2124    0.0000 C   0  0  0
    3.5000    1.2124    0.0000 S   0  0  0
    3.5000    2.6124    0.0000 O   0  0  0
    3.5000   -0.1876    0.0000 O   0  0  0
    4.9000    1.2124    0.0000 N   0  0  0
    5.6000    2.4249    0.0000 C   0  0  0
    7.0000    2.4249    0.0000 C   0  0  0
    7.7000    1.2124    0.0000 O   0  0  0
    7.7000    3.6373    0.0000 O   0  0  0
  1  2  1
  2  3  1
  3  4  2
  3  5  2
  3  6  1
  6  7  1
  7  8  1
  8  9  2
  8 10  1
M  END
> <ZINC_ID>
11888649

> <Docking_Score>
-25.379

> <Vendor>
Enamine

$$$$
C5H8O4
  MOLSOFT 06181908472D

  9  8  0  0  0  0  0  0  0  0999 V2000
    1.4000    0.0000    0.0000 C   0  0  0
    2.1000    1.2124    0.0000 O   0  0  0
    3.5000    1.2124    0.0000 C   0  0  0
    4.2000    0.0000    0.0000 O   0  0  0
    4.2000    2.4249    0.0000 C   0  0  0
    5.6000    2.4249    0.0000 C   0  0  0
    6.3000    3.6373    0.0000 C   0  0  0
    5.6000    4.8497    0.0000 O   0  0  0
    7.7000    3.6373    0.0000 O   0  0  0
  1  2  1
  2  3  1
  3  4  2
  3  5  1
  5  6  1
  6  7  1
  7  8  2
  7  9  1
M  END
> <ZINC_ID>
152993

> <Docking_Score>
-25.377

> <Vendor>
Sialbb

$$$$
C6H9NO3
  MOLSOFT 06181908472D

 10 10  0  0  1  0  0  0  0  0999 V2000
   -1.4000    0.0000    0.0000 O   0  0  0
    0.0000    0.0000    0.0000 C   0  0  0
    0.7000    1.2124    0.0000 C   0  0  0
    2.1000    1.2124    0.0000 C   0  0  0
    2.8000   -0.0000    0.0000 C   0  0  2
    4.2000   -0.0000    0.0000 C   0  0  0
    4.9000   -1.2124    0.0000 O   0  0  0
    4.9000    1.2124    0.0000 O   0  0  0
    2.1000   -1.2124    0.0000 C   0  0  0
    0.7000   -1.2124    0.0000 N   0  0  0
  1  2  2
  2  3  1
  3  4  1
  4  5  1
  6  7  2
  6  8  1
  5  6  1  6
  5  9  1
 10  2  1
  9 10  1
M  END
> <ZINC_ID>
12343438

> <Docking_Score>
-25.361

> <Vendor>
Synquest

$$$$
C6H8O3
  MOLSOFT 06181908472D

  9  9  0  0  1  0  0  0  0  0999 V2000
   -2.1000    1.2124    0.0000 O   0  0  0
   -1.4000    0.0000    0.0000 C   0  0  0
   -2.1000   -1.2124    0.0000 O   0  0  0
    0.0000    0.0000    0.0000 C   0  0  1
    0.7000    1.2124    0.0000 C   0  0  0
    2.1000    1.2124    0.0000 C   0  0  0
    2.8000   -0.0000    0.0000 C   0  0  0
    2.1000   -1.2124    0.0000 C   0  0  0
    0.7000   -1.2124    0.0000 O   0  0  0
  1  2  2
  2  3  1
  4  2  1  1
  4  5  1
  5  6  1
  6  7  1
  7  8  2
  9  4  1
  8  9  1
M  END
> <ZINC_ID>
5134454

> <Docking_Score>
-25.36

> <Vendor>
Enamine

$$$$
C7H12O4
  MOLSOFT 06181908472D

 11 10  0  0  0  0  0  0  0  0999 V2000
    1.4000    0.0000    0.0000 C   0  0  0
    2.1000    1.2124    0.0000 C   0  0  0
    3.5000    1.2124    0.0000 O   0  0  0
    4.2000    2.4249    0.0000 C   0  0  0
    3.5000    3.6373    0.0000 O   0  0  0
    5.6000    2.4249    0.0000 C   0  0  0
    6.3000    3.6373    0.0000 C   0  0  0
    7.7000    3.6373    0.0000 C   0  0  0
    8.4000    4.8497    0.0000 C   0  0  0
    7.7000    6.0622    0.0000 O   0  0  0
    9.8000    4.8497    0.0000 O   0  0  0
  1  2  1
  2  3  1
  3  4  1
  4  5  2
  4  6  1
  6  7  1
  7  8  1
  8  9  1
  9 10  2
  9 11  1
M  END
> <ZINC_ID>
2015911

> <Docking_Score>
-25.349

> <Vendor>
Aksci

$$$$
C5H10O3
  MOLSOFT 06181908472D

  8  7  0  0  1  0  0  0  0  0999 V2000
    1.4000    0.0000    0.0000 C   0  0  0
    2.1000    1.2124    0.0000 C   0  0  2
    1.4000    2.4249    0.0000 O   0  0  0
    3.5000    1.2124    0.0000 C   0  0  2
    4.2000    0.0000    0.0000 C   0  0  0
    4.2000    2.4249    0.0000 C   0  0  0
    3.5000    3.6373    0.0000 O   0  0  0
    5.6000    2.4249    0.0000 O   0  0  0
  2  1  1  6
  2  3  1
  2  4  1
  4  5  1  1
  4  6  1
  6  7  2
  6  8  1
M  END
> <ZINC_ID>
6030197

> <Docking_Score>
-25.342

> <Vendor>
Enamine

$$$$
C9H12N2O4
  MOLSOFT 06181908472D

 15 15  0  0  0  0  0  0  0  0999 V2000
   -2.1000   -1.2124    0.0000 C   0  0  0
   -1.4000    0.0000    0.0000 O   0  0  0
    0.0000    0.0000    0.0000 C   0  0  0
    0.7000    1.2124    0.0000 C   0  0  0
    2.1000    1.2124    0.0000 C   0  0  0
    2.8000    2.4249    0.0000 O   0  0  0
    2.1000    3.6373    0.0000 C   0  0  0
    2.8000   -0.0000    0.0000 N   0  0  0
    2.1000   -1.2124    0.0000 C   0  0  0
    2.8000   -2.4249    0.0000 C   0  0  0
    4.2000   -2.4249    0.0000 C   0  0  0
    4.9000   -3.6373    0.0000 C   0  0  0
    4.2000   -4.8497    0.0000 O   0  0  0
    6.3000   -3.6373    0.0000 O   0  0  0
    0.7000   -1.2124    0.0000 N   0  0  0
  1  2  1
  2  3  1
  3  4  1
  4  5  2
  6  7  1
  5  6  1
  5  8  1
  8  9  2
 10 11  1
 11 12  1
 12 13  2
 12 14  1
  9 10  1
 15  3  2
  9 15  1
M  END
> <ZINC_ID>
154352

> <Docking_Score>
-25.327

> <Vendor>
Aksci

$$$$
C8H13NO3
  MOLSOFT 06181908472D

 12 12  0  0  1  0  0  0  0  0999 V2000
   -2.1000    1.2124    0.0000 C   0  0  0
   -1.4000   -0.0000    0.0000 C   0  0  0
   -2.1000   -1.2124    0.0000 C   0  0  0
   -0.0000   -0.0000    0.0000 N   0  0  0
    0.8229    1.1326    0.0000 C   0  0  0
    2.1544    0.7000    0.0000 C   0  0  1
    3.2870    1.5229    0.0000 C   0  0  0
    4.5660    0.9535    0.0000 O   0  0  0
    3.1407    2.9152    0.0000 O   0  0  0
    2.1544   -0.7000    0.0000 C   0  0  0
    0.8229   -1.1326    0.0000 C   0  0  0
    0.3903   -2.4641    0.0000 O   0  0  0
  1  2  1
  2  3  1
  2  4  1
  4  5  1
  5  6  1
  7  8  2
  7  9  1
  6  7  1  1
  6 10  1
 11  4  1
 10 11  1
 11 12  2
M  END
> <ZINC_ID>
3671424

> <Docking_Score>
-25.319

> <Vendor>
Combiblocks

$$$$
C9H12N2O3
  MOLSOFT 06181908472D

 14 14  0  0  0  0  0  0  0  0999 V2000
   -2.1000    1.2124    0.0000 C   0  0  0
   -1.4000   -0.0000    0.0000 C   0  0  0
   -2.1000   -1.2124    0.0000 O   0  0  0
   -0.0000   -0.0000    0.0000 C   0  0  0
    0.8229    1.1326    0.0000 C   0  0  0
    0.3903    2.4641    0.0000 C   0  0  0
    2.1544    0.7000    0.0000 N   0  0  0
    2.1544   -0.7000    0.0000 N   0  0  0
    3.2870   -1.5229    0.0000 C   0  0  0
    4.5660   -0.9535    0.0000 C   0  0  0
    4.7123    0.4389    0.0000 O   0  0  0
    5.6986   -1.7764    0.0000 O   0  0  0
    0.8229   -1.1326    0.0000 C   0  0  0
    0.3903   -2.4641    0.0000 C   0  0  0
  1  2  1
  2  3  2
  2  4  1
  4  5  1
  5  6  1
  5  7  2
  7  8  1
  9 10  1
 10 11  2
 10 12  1
  8  9  1
 13  4  2
  8 13  1
 13 14  1
M  END
> <ZINC_ID>
4243116

> <Docking_Score>
-25.316

> <Vendor>
Enamine

$$$$
C5H8O3
  MOLSOFT 06181908472D

  8  8  0  0  1  0  0  0  0  0999 V2000
   -2.1000    1.2124    0.0000 O   0  0  0
   -1.4000   -0.0000    0.0000 C   0  0  0
   -2.1000   -1.2124    0.0000 O   0  0  0
   -0.0000   -0.0000    0.0000 C   0  0  1
    0.8229    1.1326    0.0000 C   0  0  0
    2.1544    0.7000    0.0000 C   0  0  0
    2.1544   -0.7000    0.0000 C   0  0  0
    0.8229   -1.1326    0.0000 O   0  0  0
  1  2  2
  2  3  1
  4  2  1  1
  4  5  1
  5  6  1
  6  7  1
  8  4  1
  7  8  1
M  END
> <ZINC_ID>
4262032

> <Docking_Score>
-25.301

> <Vendor>
Combiblocks

$$$$
C5H6O3
  MOLSOFT 06181908472D

  8  8  0  0  1  0  0  0  0  0999 V2000
   -2.1000    1.2124    0.0000 O   0  0  0
   -1.4000   -0.0000    0.0000 C   0  0  0
   -2.1000   -1.2124    0.0000 O   0  0  0
   -0.0000   -0.0000    0.0000 C   0  0  1
    0.8229    1.1326    0.0000 C   0  0  0
    2.1544    0.7000    0.0000 C   0  0  0
    2.1544   -0.7000    0.0000 C   0  0  0
    0.8229   -1.1326    0.0000 O   0  0  0
  1  2  2
  2  3  1
  4  2  1  1
  4  5  1
  5  6  2
  6  7  1
  8  4  1
  7  8  1
M  END
> <ZINC_ID>
12649722

> <Docking_Score>
-25.297

> <Vendor>
Enamine

$$$$
C4H6O3
  MOLSOFT 06181908472D

  7  6  0  0  0  0  0  0  0  0999 V2000
    1.4000    0.0000    0.0000 C   0  0  0
    2.1000    1.2124    0.0000 C   0  0  0
    1.4000    2.4249    0.0000 O   0  0  0
    3.5000    1.2124    0.0000 C   0  0  0
    4.2000    2.4249    0.0000 C   0  0  0
    3.5000    3.6373    0.0000 O   0  0  0
    5.6000    2.4249    0.0000 O   0  0  0
  1  2  1
  2  3  2
  2  4  1
  4  5  1
  5  6  2
  5  7  1
M  END
> <ZINC_ID>
895089

> <Docking_Score>
-25.293

> <Vendor>
Sialbb

$$$$
C9H7NO3S
  MOLSOFT 06181908472D

 14 15  0  0  0  0  0  0  0  0999 V2000
   -1.4000   -2.4249    0.0000 O   0  0  0
   -2.1000   -1.2124    0.0000 C   0  0  0
   -3.5000   -1.2124    0.0000 O   0  0  0
   -1.4000   -0.0000    0.0000 C   0  0  0
   -0.0000   -0.0000    0.0000 C   0  0  0
    0.8229    1.1326    0.0000 C   0  0  0
    2.1544    0.7000    0.0000 C   0  0  0
    3.2870    1.5229    0.0000 C   0  0  0
    3.2870    2.9229    0.0000 C   0  0  0
    4.6185    3.3555    0.0000 C   0  0  0
    5.4414    2.2229    0.0000 C   0  0  0
    4.6185    1.0903    0.0000 S   0  0  0
    2.1544   -0.7000    0.0000 O   0  0  0
    0.8229   -1.1326    0.0000 N   0  0  0
  1  2  2
  2  3  1
  2  4  1
  4  5  1
  5  6  1
  6  7  2
  8  9  2
  9 10  1
 10 11  2
 12  8  1
 11 12  1
  7  8  1
  7 13  1
 14  5  2
 13 14  1
M  END
> <ZINC_ID>
17170180

> <Docking_Score>
-25.293

> <Vendor>
Enamine

$$$$
C11H14N2O5S
  MOLSOFT 06181908472D

 19 19  0  0  0  0  0  0  0  0999 V2000
   -5.6000   -2.4249    0.0000 C   0  0  0
   -4.2000   -2.4249    0.0000 C   0  0  0
   -3.5000   -1.2124    0.0000 O   0  0  0
   -2.1000   -1.2124    0.0000 C   0  0  0
   -1.4000   -2.4249    0.0000 O   0  0  0
   -1.4000   -0.0000    0.0000 C   0  0  0
   -0.0000   -0.0000    0.0000 C   0  0  0
    0.8229    1.1326    0.0000 C   0  0  0
    2.1544    0.7000    0.0000 S   0  0  0
    2.1544   -0.7000    0.0000 C   0  0  0
    3.2870   -1.5229    0.0000 N   0  0  0
    4.5660   -0.9535    0.0000 C   0  0  0
    4.7123    0.4389    0.0000 O   0  0  0
    5.6986   -1.7764    0.0000 C   0  0  0
    6.9776   -1.2069    0.0000 C   0  0  0
    8.1102   -2.0298    0.0000 C   0  0  0
    7.9638   -3.4222    0.0000 O   0  0  0
    9.3891   -1.4604    0.0000 O   0  0  0
    0.8229   -1.1326    0.0000 N   0  0  0
  1  2  1
  2  3  1
  3  4  1
  4  5  2
  4  6  1
  6  7  1
  7  8  2
  8  9  1
  9 10  1
 11 12  1
 12 13  2
 12 14  1
 14 15  1
 15 16  1
 16 17  2
 16 18  1
 10 11  1
 19  7  1
 10 19  2
M  END
> <ZINC_ID>
154981

> <Docking_Score>
-25.285

> <Vendor>
Enamine

$$$$
C6H10O3
  MOLSOFT 06181908472D

  9  8  0  0  0  0  0  0  0  0999 V2000
    1.4000    0.0000    0.0000 C   0  0  0
    2.1000    1.2124    0.0000 C   0  0  0
    3.5000    1.2124    0.0000 C   0  0  0
    4.2000    0.0000    0.0000 O   0  0  0
    4.2000    2.4249    0.0000 C   0  0  0
    5.6000    2.4249    0.0000 C   0  0  0
    6.3000    3.6373    0.0000 C   0  0  0
    5.6000    4.8497    0.0000 O   0  0  0
    7.7000    3.6373    0.0000 O   0  0  0
  1  2  1
  2  3  1
  3  4  2
  3  5  1
  5  6  1
  6  7  1
  7  8  2
  7  9  1
M  END
> <ZINC_ID>
394975

> <Docking_Score>
-25.285

> <Vendor>
Aksci

$$$$
C5H9N3O2
  MOLSOFT 06181908472D

 10 10  0  0  0  0  0  0  0  0999 V2000
   -4.2000   -0.0000    0.0000 O   0  0  0
   -3.5000   -1.2124    0.0000 C   0  0  0
   -4.2000   -2.4249    0.0000 O   0  0  0
   -2.1000   -1.2124    0.0000 C   0  0  0
   -1.4000   -0.0000    0.0000 N   0  0  0
   -0.0000   -0.0000    0.0000 C   0  0  0
    0.8229    1.1326    0.0000 N   0  0  0
    2.1544    0.7000    0.0000 C   0  0  0
    2.1544   -0.7000    0.0000 C   0  0  0
    0.8229   -1.1326    0.0000 N   0  0  0
  1  2  2
  2  3  1
  2  4  1
  4  5  1
  5  6  1
  6  7  2
  7  8  1
  8  9  1
 10  6  1
  9 10  1
M  END
> <ZINC_ID>
1592098

> <Docking_Score>
-25.271

> <Vendor>
Sialbb

$$$$
C5H10O3
  MOLSOFT 06181908472D

  8  7  0  0  1  0  0  0  0  0999 V2000
    1.4000    0.0000    0.0000 C   0  0  0
    2.1000    1.2124    0.0000 C   0  0  0
    1.4000    2.4249    0.0000 C   0  0  0
    3.5000    1.2124    0.0000 C   0  0  1
    4.2000    0.0000    0.0000 O   0  0  0
    4.2000    2.4249    0.0000 C   0  0  0
    3.5000    3.6373    0.0000 O   0  0  0
    5.6000    2.4249    0.0000 O   0  0  0
  1  2  1
  2  3  1
  2  4  1
  4  5  1  6
  4  6  1
  6  7  2
  6  8  1
M  END
> <ZINC_ID>
389854

> <Docking_Score>
-25.263

> <Vendor>
Synquest

$$$$
C3H4O3
  MOLSOFT 06181908472D

  6  5  0  0  0  0  0  0  0  0999 V2000
    1.4000    0.0000    0.0000 C   0  0  0
    2.1000    1.2124    0.0000 C   0  0  0
    1.4000    2.4249    0.0000 O   0  0  0
    3.5000    1.2124    0.0000 C   0  0  0
    4.2000    0.0000    0.0000 O   0  0  0
    4.2000    2.4249    0.0000 O   0  0  0
  1  2  1
  2  3  2
  2  4  1
  4  5  2
  4  6  1
M  END
> <ZINC_ID>
1532517

> <Docking_Score>
-25.263

> <Vendor>
Aksci

$$$$
C5H10O3
  MOLSOFT 06181908472D

  8  7  0  0  1  0  0  0  0  0999 V2000
    1.4000    0.0000    0.0000 C   0  0  0
    2.1000    1.2124    0.0000 C   0  0  2
    1.4000    2.4249    0.0000 C   0  0  0
    2.1000    3.6373    0.0000 O   0  0  0
   -0.0000    2.4249    0.0000 O   0  0  0
    3.5000    1.2124    0.0000 C   0  0  1
    4.2000    0.0000    0.0000 C   0  0  0
    4.2000    2.4249    0.0000 O   0  0  0
  2  1  1  6
  3  4  2
  3  5  1
  2  3  1
  2  6  1
  6  7  1  6
  6  8  1
M  END
> <ZINC_ID>
6021105

> <Docking_Score>
-25.258

> <Vendor>
Enamine

$$$$
C10H22N2O6S2
  MOLSOFT 06181908472D

 20 20  0  0  0  0  0  0  0  0999 V2000
   -5.4124   -1.7249    0.0000 O   0  0  0
   -4.2000   -2.4249    0.0000 S   0  0  0
   -2.9876   -3.1249    0.0000 O   0  0  0
   -4.9000   -3.6373    0.0000 O   0  0  0
   -3.5000   -1.2124    0.0000 C   0  0  0
   -2.1000   -1.2124    0.0000 C   0  0  0
   -1.4000    0.0000    0.0000 C   0  0  0
    0.0000    0.0000    0.0000 N   0  0  0
    0.7000    1.2124    0.0000 C   0  0  0
    2.1000    1.2124    0.0000 C   0  0  0
    2.8000   -0.0000    0.0000 N   0  0  0
    4.2000   -0.0000    0.0000 C   0  0  0
    4.9000    1.2124    0.0000 C   0  0  0
    6.3000    1.2124    0.0000 C   0  0  0
    7.0000    2.4249    0.0000 S   0  0  0
    5.7876    3.1249    0.0000 O   0  0  0
    8.2124    1.7249    0.0000 O   0  0  0
    7.7000    3.6373    0.0000 O   0  0  0
    2.1000   -1.2124    0.0000 C   0  0  0
    0.7000   -1.2124    0.0000 C   0  0  0
  1  2  2
  2  3  2
  2  4  1
  2  5  1
  5  6  1
  6  7  1
  7  8  1
  8  9  1
  9 10  1
 10 11  1
 12 13  1
 13 14  1
 14 15  1
 15 16  2
 15 17  2
 15 18  1
 11 12  1
 11 19  1
 20  8  1
 19 20  1
M  END
> <ZINC_ID>
19798476

> <Docking_Score>
-25.25

> <Vendor>
Combiblocks

$$$$
C5H10O3
  MOLSOFT 06181908472D

  8  7  0  0  1  0  0  0  0  0999 V2000
    1.4000    0.0000    0.0000 C   0  0  0
    2.1000    1.2124    0.0000 C   0  0  1
    1.4000    2.4249    0.0000 O   0  0  0
    3.5000    1.2124    0.0000 C   0  0  0
    4.2000    2.4249    0.0000 C   0  0  0
    5.6000    2.4249    0.0000 C   0  0  0
    6.3000    1.2124    0.0000 O   0  0  0
    6.3000    3.6373    0.0000 O   0  0  0
  2  1  1  1
  2  3  1
  2  4  1
  4  5  1
  5  6  1
  6  7  2
  6  8  1
M  END
> <ZINC_ID>
6036206

> <Docking_Score>
-25.246

> <Vendor>
Enamine

$$$$
C8H15NO5
  MOLSOFT 06181908472D

 14 13  0  0  1  0  0  0  0  0999 V2000
    1.4000    0.0000    0.0000 C   0  0  0
    2.1000    1.2124    0.0000 C   0  0  0
    3.3124    0.5124    0.0000 C   0  0  0
    0.8876    1.9124    0.0000 C   0  0  0
    2.8000    2.4249    0.0000 O   0  0  0
    4.2000    2.4249    0.0000 C   0  0  0
    4.9000    1.2124    0.0000 O   0  0  0
    4.9000    3.6373    0.0000 N   0  0  0
    6.3000    3.6373    0.0000 C   0  0  0
    7.0000    4.8497    0.0000 C   0  0  2
    6.3000    6.0622    0.0000 O   0  0  0
    8.4000    4.8497    0.0000 C   0  0  0
    9.1000    3.6373    0.0000 O   0  0  0
    9.1000    6.0622    0.0000 O   0  0  0
  1  2  1
  2  3  1
  2  4  1
  2  5  1
  5  6  1
  6  7  2
  6  8  1
  8  9  1
  9 10  1
 10 11  1  6
 10 12  1
 12 13  2
 12 14  1
M  END
> <ZINC_ID>
15442565

> <Docking_Score>
-25.246

> <Vendor>
Enamine

$$$$
C8H8O3S
  MOLSOFT 06181908472D

 12 12  0  0  0  0  0  0  0  0999 V2000
   -3.5000   -3.6373    0.0000 O   0  0  0
   -4.2000   -2.4249    0.0000 C   0  0  0
   -5.6000   -2.4249    0.0000 O   0  0  0
   -3.5000   -1.2124    0.0000 C   0  0  0
   -2.1000   -1.2124    0.0000 C   0  0  0
   -1.4000   -0.0000    0.0000 C   0  0  0
   -2.1000    1.2124    0.0000 O   0  0  0
   -0.0000   -0.0000    0.0000 C   0  0  0
    0.8229    1.1326    0.0000 C   0  0  0
    2.1544    0.7000    0.0000 C   0  0  0
    2.1544   -0.7000    0.0000 C   0  0  0
    0.8229   -1.1326    0.0000 S   0  0  0
  1  2  2
  2  3  1
  2  4  1
  4  5  1
  5  6  1
  6  7  2
  6  8  1
  8  9  2
  9 10  1
 10 11  2
 12  8  1
 11 12  1
M  END
> <ZINC_ID>
133392

> <Docking_Score>
-25.243

> <Vendor>
Alfa

$$$$
C5H7NO3
  MOLSOFT 06181908472D

  9  9  0  0  1  0  0  0  0  0999 V2000
   -1.4000   -0.0000    0.0000 O   0  0  0
   -0.0000   -0.0000    0.0000 C   0  0  0
    0.8229    1.1326    0.0000 C   0  0  0
    2.1544    0.7000    0.0000 C   0  0  0
    2.1544   -0.7000    0.0000 C   0  0  1
    3.2870   -1.5229    0.0000 C   0  0  0
    3.1407   -2.9152    0.0000 O   0  0  0
    4.5660   -0.9535    0.0000 O   0  0  0
    0.8229   -1.1326    0.0000 N   0  0  0
  1  2  2
  2  3  1
  3  4  1
  4  5  1
  6  7  2
  6  8  1
  5  6  1  1
  9  2  1
  5  9  1
M  END
> <ZINC_ID>
3598263

> <Docking_Score>
-25.24

> <Vendor>
Chemimprex

$$$$
C9H15NO3
  MOLSOFT 06181908472D

 13 13  0  0  0  0  0  0  0  0999 V2000
   -3.5000   -3.6373    0.0000 O   0  0  0
   -4.2000   -2.4249    0.0000 C   0  0  0
   -5.6000   -2.4249    0.0000 O   0  0  0
   -3.5000   -1.2124    0.0000 C   0  0  0
   -2.1000   -1.2124    0.0000 C   0  0  0
   -1.4000    0.0000    0.0000 C   0  0  0
   -2.1000    1.2124    0.0000 O   0  0  0
    0.0000    0.0000    0.0000 N   0  0  0
    0.7000    1.2124    0.0000 C   0  0  0
    2.1000    1.2124    0.0000 C   0  0  0
    2.8000   -0.0000    0.0000 C   0  0  0
    2.1000   -1.2124    0.0000 C   0  0  0
    0.7000   -1.2124    0.0000 C   0  0  0
  1  2  2
  2  3  1
  2  4  1
  4  5  1
  5  6  1
  6  7  2
  6  8  1
  8  9  1
  9 10  1
 10 11  1
 11 12  1
 13  8  1
 12 13  1
M  END
> <ZINC_ID>
294579

> <Docking_Score>
-25.239

> <Vendor>
Aksci

$$$$
C10H15NO4
  MOLSOFT 06181908472D

 15 16  0  0  1  0  0  0  0  0999 V2000
   -2.1000    1.2124    0.0000 O   0  0  0
   -1.4000   -0.0000    0.0000 C   0  0  0
   -2.1000   -1.2124    0.0000 O   0  0  0
   -0.0000   -0.0000    0.0000 C   0  0  1
    0.8229    1.1326    0.0000 C   0  0  0
    2.1544    0.7000    0.0000 C   0  0  0
    3.2870    1.5229    0.0000 O   0  0  0
    2.1544   -0.7000    0.0000 N   0  0  0
    3.2870   -1.5229    0.0000 C   0  0  0
    4.5660   -0.9535    0.0000 C   0  0  1
    4.8570    0.4159    0.0000 C   0  0  0
    6.2494    0.5623    0.0000 C   0  0  0
    6.8188   -0.7167    0.0000 C   0  0  0
    5.7784   -1.6535    0.0000 O   0  0  0
    0.8229   -1.1326    0.0000 C   0  0  0
  1  2  2
  2  3  1
  4  2  1  1
  4  5  1
  5  6  1
  6  7  2
  6  8  1
 10  9  1  1
 10 11  1
 11 12  1
 12 13  1
 14 10  1
 13 14  1
  8  9  1
 15  4  1
  8 15  1
M  END
> <ZINC_ID>
1985780

> <Docking_Score>
-25.227

> <Vendor>
Enamine

$$$$
C12H22O12
  MOLSOFT 06181908472D

 24 24  0  0  1  0  0  0  0  0999 V2000
   -6.3000    1.2124    0.0000 O   0  0  0
   -5.6000    2.4249    0.0000 C   0  0  0
   -6.3000    3.6373    0.0000 O   0  0  0
   -4.2000    2.4249    0.0000 C   0  0  2
   -3.5000    3.6373    0.0000 O   0  0  0
   -3.5000    1.2124    0.0000 C   0  0  2
   -4.2000    0.0000    0.0000 O   0  0  0
   -2.1000    1.2124    0.0000 C   0  0  2
   -1.4000    0.0000    0.0000 O   0  0  0
    0.0000    0.0000    0.0000 C   0  0  2
    0.7000    1.2124    0.0000 O   0  0  0
    2.1000    1.2124    0.0000 C   0  0  2
    2.8000    2.4249    0.0000 C   0  0  0
    2.1000    3.6373    0.0000 O   0  0  0
    2.8000   -0.0000    0.0000 C   0  0  2
    4.2000   -0.0000    0.0000 O   0  0  0
    2.1000   -1.2124    0.0000 C   0  0  2
    2.8000   -2.4249    0.0000 O   0  0  0
    0.7000   -1.2124    0.0000 C   0  0  1
   -0.0000   -2.4249    0.0000 O   0  0  0
   -1.4000    2.4249    0.0000 C   0  0  1
    0.0000    2.4249    0.0000 O   0  0  0
   -2.1000    3.6373    0.0000 C   0  0  0
   -1.4000    4.8497    0.0000 O   0  0  0
  1  2  2
  2  3  1
  2  4  1
  4  5  1  6
  4  6  1
  6  7  1  1
  6  8  1
 10  9  1  6
 10 11  1
 11 12  1
 13 14  1
 12 13  1  6
 12 15  1
 15 16  1  6
 15 17  1
 17 18  1  6
 19 10  1
 17 19  1
 19 20  1  1
  8  9  1  1
  8 21  1
 21 22  1  6
 21 23  1
 23 24  1
M  END
> <ZINC_ID>
12405025

> <Docking_Score>
-25.227

> <Vendor>
ACROS

$$$$
C5H8O4
  MOLSOFT 06181908472D

  9  8  0  0  0  0  0  0  0  0999 V2000
    1.4000    0.0000    0.0000 C   0  0  0
    2.1000    1.2124    0.0000 C   0  0  0
    3.5000    1.2124    0.0000 O   0  0  0
    4.2000    2.4249    0.0000 C   0  0  0
    3.5000    3.6373    0.0000 O   0  0  0
    5.6000    2.4249    0.0000 C   0  0  0
    6.3000    3.6373    0.0000 C   0  0  0
    5.6000    4.8497    0.0000 O   0  0  0
    7.7000    3.6373    0.0000 O   0  0  0
  1  2  1
  2  3  1
  3  4  1
  4  5  2
  4  6  1
  6  7  1
  7  8  2
  7  9  1
M  END
> <ZINC_ID>
389716

> <Docking_Score>
-25.224

> <Vendor>
Alfa

$$$$
C7H8N6O4
  MOLSOFT 06181908472D

 17 18  0  0  0  0  0  0  0  0999 V2000
   -3.5000   -1.2124    0.0000 C   0  0  0
   -2.1000   -1.2124    0.0000 O   0  0  0
   -1.4000   -0.0000    0.0000 C   0  0  0
   -0.0000   -0.0000    0.0000 C   0  0  0
    0.8229    1.1326    0.0000 C   0  0  0
    0.3903    2.4641    0.0000 C   0  0  0
    1.3271    3.5045    0.0000 O   0  0  0
   -0.9791    2.7552    0.0000 O   0  0  0
    2.1544    0.7000    0.0000 N   0  0  0
    2.1544   -0.7000    0.0000 N   0  0  0
    0.8229   -1.1326    0.0000 N   0  0  0
    0.3903   -2.4641    0.0000 C   0  0  0
    1.2132   -3.5967    0.0000 N   0  0  0
    0.3903   -4.7294    0.0000 O   0  0  0
   -0.9412   -4.2967    0.0000 N   0  0  0
   -0.9412   -2.8967    0.0000 C   0  0  0
   -2.0738   -2.0738    0.0000 N   0  0  0
  1  2  1
  2  3  1
  3  4  1
  4  5  2
  6  7  2
  6  8  1
  5  6  1
  5  9  1
  9 10  2
 11  4  1
 10 11  1
 11 12  1
 12 13  2
 13 14  1
 14 15  1
 16 12  1
 15 16  2
 16 17  1
M  END
> <ZINC_ID>
967415

> <Docking_Score>
-25.221

> <Vendor>
Synquest

$$$$
C6H10O4
  MOLSOFT 06181908472D

 10  9  0  0  1  0  0  0  0  0999 V2000
    1.4000    0.0000    0.0000 C   0  0  0
    2.1000    1.2124    0.0000 O   0  0  0
    3.5000    1.2124    0.0000 C   0  0  0
    4.2000    0.0000    0.0000 O   0  0  0
    4.2000    2.4249    0.0000 C   0  0  0
    5.6000    2.4249    0.0000 C   0  0  2
    6.3000    1.2124    0.0000 C   0  0  0
    6.3000    3.6373    0.0000 C   0  0  0
    5.6000    4.8497    0.0000 O   0  0  0
    7.7000    3.6373    0.0000 O   0  0  0
  1  2  1
  2  3  1
  3  4  2
  3  5  1
  5  6  1
  6  7  1  1
  6  8  1
  8  9  2
  8 10  1
M  END
> <ZINC_ID>
6763328

> <Docking_Score>
-25.216

> <Vendor>
Enamine

$$$$
C7H13NO3
  MOLSOFT 06181908472D

 11 10  0  0  0  0  0  0  0  0999 V2000
    1.4000    0.0000    0.0000 C   0  0  0
    2.1000    1.2124    0.0000 C   0  0  0
    1.4000    2.4249    0.0000 C   0  0  0
    3.5000    1.2124    0.0000 C   0  0  0
    4.2000    2.4249    0.0000 C   0  0  0
    3.5000    3.6373    0.0000 O   0  0  0
    5.6000    2.4249    0.0000 N   0  0  0
    6.3000    3.6373    0.0000 C   0  0  0
    7.7000    3.6373    0.0000 C   0  0  0
    8.4000    2.4249    0.0000 O   0  0  0
    8.4000    4.8497    0.0000 O   0  0  0
  1  2  1
  2  3  1
  2  4  1
  4  5  1
  5  6  2
  5  7  1
  7  8  1
  8  9  1
  9 10  2
  9 11  1
M  END
> <ZINC_ID>
2527898

> <Docking_Score>
-25.211

> <Vendor>
Combiblocks

$$$$
C6H12O3
  MOLSOFT 06181908472D

  9  8  0  0  1  0  0  0  0  0999 V2000
    1.4000    0.0000    0.0000 C   0  0  0
    2.1000    1.2124    0.0000 C   0  0  2
    1.4000    2.4249    0.0000 O   0  0  0
    3.5000    1.2124    0.0000 C   0  0  0
    4.2000    2.4249    0.0000 C   0  0  0
    5.6000    2.4249    0.0000 C   0  0  0
    6.3000    3.6373    0.0000 C   0  0  0
    5.6000    4.8497    0.0000 O   0  0  0
    7.7000    3.6373    0.0000 O   0  0  0
  2  1  1  6
  2  3  1
  2  4  1
  4  5  1
  5  6  1
  6  7  1
  7  8  2
  7  9  1
M  END
> <ZINC_ID>
4218504

> <Docking_Score>
-25.209

> <Vendor>
Enamine

$$$$
C7H10N2O3
  MOLSOFT 06181908472D

 12 12  0  0  0  0  0  0  0  0999 V2000
   -2.1000   -1.2124    0.0000 C   0  0  0
   -1.4000   -0.0000    0.0000 C   0  0  0
   -0.0000   -0.0000    0.0000 C   0  0  0
    0.8229    1.1326    0.0000 N   0  0  0
    2.1544    0.7000    0.0000 O   0  0  0
    2.1544   -0.7000    0.0000 C   0  0  0
    3.2870   -1.5229    0.0000 C   0  0  0
    4.5660   -0.9535    0.0000 C   0  0  0
    5.6986   -1.7764    0.0000 C   0  0  0
    5.5523   -3.1687    0.0000 O   0  0  0
    6.9776   -1.2069    0.0000 O   0  0  0
    0.8229   -1.1326    0.0000 N   0  0  0
  1  2  1
  2  3  1
  3  4  2
  4  5  1
  5  6  1
  7  8  1
  8  9  1
  9 10  2
  9 11  1
  6  7  1
 12  3  1
  6 12  2
M  END
> <ZINC_ID>
13483699

> <Docking_Score>
-25.207

> <Vendor>
Enamine

$$$$
C2H6O4S
  MOLSOFT 06181908472D

  7  6  0  0  0  0  0  0  0  0999 V2000
    1.4000    0.0000    0.0000 O   0  0  0
    2.1000    1.2124    0.0000 S   0  0  0
    3.3124    0.5124    0.0000 O   0  0  0
    0.8876    1.9124    0.0000 O   0  0  0
    2.8000    2.4249    0.0000 C   0  0  0
    4.2000    2.4249    0.0000 C   0  0  0
    4.9000    3.6373    0.0000 O   0  0  0
  1  2  2
  2  3  2
  2  4  1
  2  5  1
  5  6  1
  6  7  1
M  END
> <ZINC_ID>
3875755

> <Docking_Score>
-25.205

> <Vendor>
Alfa

$$$$
C16H32O5
  MOLSOFT 06181908472D

 21 20  0  0  1  0  0  0  0  0999 V2000
    1.4000    0.0000    0.0000 O   0  0  0
    2.1000    1.2124    0.0000 C   0  0  0
    1.4000    2.4249    0.0000 O   0  0  0
    3.5000    1.2124    0.0000 C   0  0  0
    4.2000    2.4249    0.0000 C   0  0  0
    5.6000    2.4249    0.0000 C   0  0  0
    6.3000    3.6373    0.0000 C   0  0  0
    7.7000    3.6373    0.0000 C   0  0  0
    8.4000    4.8497    0.0000 C   0  0  0
    9.8000    4.8497    0.0000 C   0  0  0
   10.5000    6.0622    0.0000 C   0  0  1
    9.8000    7.2746    0.0000 O   0  0  0
   11.9000    6.0622    0.0000 C   0  0  2
   12.6000    4.8497    0.0000 O   0  0  0
   12.6000    7.2746    0.0000 C   0  0  0
   14.0000    7.2746    0.0000 C   0  0  0
   14.7000    8.4870    0.0000 C   0  0  0
   16.1000    8.4870    0.0000 C   0  0  0
   16.8000    9.6995    0.0000 C   0  0  0
   18.2000    9.6995    0.0000 C   0  0  0
   18.9000   10.9119    0.0000 O   0  0  0
  1  2  2
  2  3  1
  2  4  1
  4  5  1
  5  6  1
  6  7  1
  7  8  1
  8  9  1
  9 10  1
 10 11  1
 11 12  1  1
 11 13  1
 13 14  1  1
 13 15  1
 15 16  1
 16 17  1
 17 18  1
 18 19  1
 19 20  1
 20 21  1
M  END
> <ZINC_ID>
3881331

> <Docking_Score>
-25.192

> <Vendor>
Alfa

$$$$
C4H6O4
  MOLSOFT 06181908472D

  8  7  0  0  0  0  0  0  0  0999 V2000
    1.4000    0.0000    0.0000 C   0  0  0
    2.1000    1.2124    0.0000 C   0  0  0
    3.5000    1.2124    0.0000 O   0  0  0
    4.2000    2.4249    0.0000 C   0  0  0
    3.5000    3.6373    0.0000 O   0  0  0
    5.6000    2.4249    0.0000 C   0  0  0
    6.3000    1.2124    0.0000 O   0  0  0
    6.3000    3.6373    0.0000 O   0  0  0
  1  2  1
  2  3  1
  3  4  1
  4  5  2
  4  6  1
  6  7  2
  6  8  1
M  END
> <ZINC_ID>
1693437

> <Docking_Score>
-25.189

> <Vendor>
Aksci

$$$$
C11H19N3O6S
  MOLSOFT 06181908472D

 21 20  0  0  1  0  0  0  0  0999 V2000
    1.4000    0.0000    0.0000 C   0  0  0
    2.1000    1.2124    0.0000 S   0  0  0
    3.5000    1.2124    0.0000 C   0  0  0
    4.2000    2.4249    0.0000 C   0  0  2
    5.6000    2.4249    0.0000 N   0  0  0
    6.3000    3.6373    0.0000 C   0  0  0
    5.6000    4.8497    0.0000 O   0  0  0
    7.7000    3.6373    0.0000 C   0  0  0
    8.4000    4.8497    0.0000 C   0  0  0
    9.8000    4.8497    0.0000 C   0  0  2
   10.5000    3.6373    0.0000 N   0  0  0
   10.5000    6.0622    0.0000 C   0  0  0
    9.8000    7.2746    0.0000 O   0  0  0
   11.9000    6.0622    0.0000 O   0  0  0
    3.5000    3.6373    0.0000 C   0  0  0
    4.2000    4.8497    0.0000 O   0  0  0
    2.1000    3.6373    0.0000 N   0  0  0
    1.4000    4.8497    0.0000 C   0  0  0
   -0.0000    4.8497    0.0000 C   0  0  0
   -0.7000    3.6373    0.0000 O   0  0  0
   -0.7000    6.0622    0.0000 O   0  0  0
  1  2  1
  2  3  1
  3  4  1
  5  6  1
  6  7  2
  6  8  1
  8  9  1
  9 10  1
 10 11  1  1
 10 12  1
 12 13  2
 12 14  1
  4  5  1
  4 15  1  1
 15 16  2
 15 17  1
 17 18  1
 18 19  1
 19 20  2
 19 21  1
M  END
> <ZINC_ID>
1532230

> <Docking_Score>
-25.188

> <Vendor>
Sialbb

$$$$
C6H7N3O3S
  MOLSOFT 06181908472D

 13 13  0  0  0  0  0  0  0  0999 V2000
   -4.2000   -0.0000    0.0000 O   0  0  0
   -3.5000   -1.2124    0.0000 C   0  0  0
   -4.2000   -2.4249    0.0000 O   0  0  0
   -2.1000   -1.2124    0.0000 C   0  0  0
   -1.4000    0.0000    0.0000 C   0  0  0
    0.0000    0.0000    0.0000 C   0  0  0
    0.7000    1.2124    0.0000 N   0  0  0
    2.1000    1.2124    0.0000 N   0  0  0
    2.8000   -0.0000    0.0000 C   0  0  0
    4.2000   -0.0000    0.0000 S   0  0  0
    2.1000   -1.2124    0.0000 N   0  0  0
    0.7000   -1.2124    0.0000 C   0  0  0
   -0.0000   -2.4249    0.0000 O   0  0  0
  1  2  2
  2  3  1
  2  4  1
  4  5  1
  5  6  1
  6  7  1
  7  8  2
  8  9  1
  9 10  2
  9 11  1
 12  6  2
 11 12  1
 12 13  1
M  END
> <ZINC_ID>
18183243

> <Docking_Score>
-25.176

> <Vendor>
Enamine

$$$$
C5H7NO3
  MOLSOFT 06181908472D

  9  9  0  0  1  0  0  0  0  0999 V2000
   -1.4000   -0.0000    0.0000 O   0  0  0
   -0.0000   -0.0000    0.0000 C   0  0  0
    0.8229    1.1326    0.0000 C   0  0  0
    2.1544    0.7000    0.0000 C   0  0  2
    3.2870    1.5229    0.0000 C   0  0  0
    4.5660    0.9535    0.0000 O   0  0  0
    3.1407    2.9152    0.0000 O   0  0  0
    2.1544   -0.7000    0.0000 C   0  0  0
    0.8229   -1.1326    0.0000 N   0  0  0
  1  2  2
  2  3  1
  3  4  1
  5  6  2
  5  7  1
  4  5  1  6
  4  8  1
  9  2  1
  8  9  1
M  END
> <ZINC_ID>
19088164

> <Docking_Score>
-25.172

> <Vendor>
Enamine

$$$$
C8H15NO3
  MOLSOFT 06181908472D

 12 11  0  0  0  0  0  0  0  0999 V2000
    1.4000    0.0000    0.0000 C   0  0  0
    2.1000    1.2124    0.0000 C   0  0  0
    1.4000    2.4249    0.0000 C   0  0  0
    3.5000    1.2124    0.0000 C   0  0  0
    4.2000    2.4249    0.0000 C   0  0  0
    3.5000    3.6373    0.0000 O   0  0  0
    5.6000    2.4249    0.0000 N   0  0  0
    6.3000    3.6373    0.0000 C   0  0  0
    7.7000    3.6373    0.0000 C   0  0  0
    8.4000    4.8497    0.0000 C   0  0  0
    7.7000    6.0622    0.0000 O   0  0  0
    9.8000    4.8497    0.0000 O   0  0  0
  1  2  1
  2  3  1
  2  4  1
  4  5  1
  5  6  2
  5  7  1
  7  8  1
  8  9  1
  9 10  1
 10 11  2
 10 12  1
M  END
> <ZINC_ID>
11891622

> <Docking_Score>
-25.169

> <Vendor>
Enamine

$$$$
C12H17N
  MOLSOFT 06181908472D

 13 14  0  0  1  0  0  0  0  0999 V2000
   -1.4000    0.0000    0.0000 C   0  0  0
    0.0000    0.0000    0.0000 C   0  0  1
    0.7000    1.2124    0.0000 C   0  0  0
    2.1000    1.2124    0.0000 C   0  0  0
    3.4156    1.6913    0.0000 C   0  0  0
    1.8569    2.5912    0.0000 C   0  0  0
    2.8000   -0.0000    0.0000 N   0  0  0
    2.1000   -1.2124    0.0000 C   0  0  0
    2.8000   -2.4249    0.0000 C   0  0  0
    2.1000   -3.6373    0.0000 C   0  0  0
    0.7000   -3.6373    0.0000 C   0  0  0
    0.0000   -2.4249    0.0000 C   0  0  0
    0.7000   -1.2124    0.0000 C   0  0  0
  2  1  1  1
  2  3  1
  3  4  1
  4  5  1
  4  6  1
  4  7  1
  7  8  1
  8  9  2
  9 10  1
 10 11  2
 11 12  1
 13  8  1
 13  2  1
 12 13  2
M  END
> <ZINC_ID>
1235052

> <Docking_Score>
-25.158

> <Vendor>
Enamine

$$$$
C5H9NO3S
  MOLSOFT 06181908472D

 10  9  0  0  1  0  0  0  0  0999 V2000
    1.4000    0.0000    0.0000 C   0  0  0
    2.1000    1.2124    0.0000 C   0  0  1
    1.4000    2.4249    0.0000 S   0  0  0
    3.5000    1.2124    0.0000 C   0  0  0
    4.2000    0.0000    0.0000 O   0  0  0
    4.2000    2.4249    0.0000 N   0  0  0
    5.6000    2.4249    0.0000 C   0  0  0
    6.3000    3.6373    0.0000 C   0  0  0
    5.6000    4.8497    0.0000 O   0  0  0
    7.7000    3.6373    0.0000 O   0  0  0
  2  1  1  1
  2  3  1
  2  4  1
  4  5  2
  4  6  1
  6  7  1
  7  8  1
  8  9  2
  8 10  1
M  END
> <ZINC_ID>
3831551

> <Docking_Score>
-25.157

> <Vendor>
Combiblocks

$$$$
C12H20N2O5
  MOLSOFT 06181908472D

 19 19  0  0  1  0  0  0  0  0999 V2000
   -1.4000    0.0000    0.0000 C   0  0  0
    0.0000    0.0000    0.0000 C   0  0  1
    0.7000    1.2124    0.0000 C   0  0  0
   -0.0000    2.4249    0.0000 O   0  0  0
    2.1000    1.2124    0.0000 N   0  0  0
    2.8000    2.4249    0.0000 C   0  0  0
    2.1000    3.6373    0.0000 C   0  0  0
    0.7000    3.6373    0.0000 O   0  0  0
    2.8000    4.8497    0.0000 O   0  0  0
    2.8000   -0.0000    0.0000 C   0  0  0
    2.1000   -1.2124    0.0000 C   0  0  0
    0.7000   -1.2124    0.0000 N   0  0  0
   -0.0000   -2.4249    0.0000 C   0  0  0
   -1.4000   -2.4249    0.0000 O   0  0  0
    0.7000   -3.6373    0.0000 O   0  0  0
   -0.0000   -4.8497    0.0000 C   0  0  0
    1.2124   -5.5497    0.0000 C   0  0  0
   -1.2124   -4.1497    0.0000 C   0  0  0
   -0.7000   -6.0622    0.0000 C   0  0  0
  2  1  1  1
  2  3  1
  3  4  2
  3  5  1
  6  7  1
  7  8  2
  7  9  1
  5  6  1
  5 10  1
 10 11  1
 12  2  1
 11 12  1
 12 13  1
 13 14  2
 13 15  1
 15 16  1
 16 17  1
 16 18  1
 16 19  1
M  END
> <ZINC_ID>
8535371

> <Docking_Score>
-25.149

> <Vendor>
Combiblocks

$$$$
C8H12N4O4
  MOLSOFT 06181908472D

 16 17  0  0  1  0  0  0  0  0999 V2000
   -3.5000   -3.6373    0.0000 O   0  0  0
   -4.2000   -2.4249    0.0000 C   0  0  0
   -5.6000   -2.4249    0.0000 O   0  0  0
   -3.5000   -1.2124    0.0000 C   0  0  0
   -2.1000   -1.2124    0.0000 C   0  0  0
   -1.4000   -0.0000    0.0000 C   0  0  0
   -0.0000   -0.0000    0.0000 N   0  0  0
    0.8229    1.1326    0.0000 C   0  0  0
    0.3903    2.4641    0.0000 O   0  0  0
    2.1544    0.7000    0.0000 N   0  0  0
    2.1544   -0.7000    0.0000 C   0  0  2
    2.9773   -1.8326    0.0000 N   0  0  0
    2.1544   -2.9652    0.0000 C   0  0  0
    2.5870   -4.2967    0.0000 O   0  0  0
    0.8229   -2.5326    0.0000 N   0  0  0
    0.8229   -1.1326    0.0000 C   0  0  1
  1  2  2
  2  3  1
  2  4  1
  4  5  1
  5  6  1
  6  7  1
  7  8  1
  8  9  2
  8 10  1
 10 11  1
 11 12  1  6
 12 13  1
 13 14  2
 13 15  1
 16 11  1
 16  7  1
 16 15  1  1
M  END
> <ZINC_ID>
356305

> <Docking_Score>
-25.148

> <Vendor>
Aksci

$$$$
C6H12O3
  MOLSOFT 06181908472D

  9  8  0  0  1  0  0  0  0  0999 V2000
    1.4000    0.0000    0.0000 C   0  0  0
    2.1000    1.2124    0.0000 C   0  0  0
    3.5000    1.2124    0.0000 C   0  0  0
    4.2000    2.4249    0.0000 C   0  0  0
    5.6000    2.4249    0.0000 C   0  0  1
    6.3000    1.2124    0.0000 O   0  0  0
    6.3000    3.6373    0.0000 C   0  0  0
    5.6000    4.8497    0.0000 O   0  0  0
    7.7000    3.6373    0.0000 O   0  0  0
  1  2  1
  2  3  1
  3  4  1
  4  5  1
  5  6  1  6
  5  7  1
  7  8  2
  7  9  1
M  END
> <ZINC_ID>
1757853

> <Docking_Score>
-25.142

> <Vendor>
Sialbb

$$$$
C4H10O4S
  MOLSOFT 06181908472D

  9  8  0  0  0  0  0  0  0  0999 V2000
    1.4000    0.0000    0.0000 O   0  0  0
    2.1000    1.2124    0.0000 S   0  0  0
    3.3124    0.5124    0.0000 O   0  0  0
    0.8876    1.9124    0.0000 O   0  0  0
    2.8000    2.4249    0.0000 C   0  0  0
    4.2000    2.4249    0.0000 C   0  0  0
    4.9000    3.6373    0.0000 C   0  0  0
    6.3000    3.6373    0.0000 C   0  0  0
    7.0000    4.8497    0.0000 O   0  0  0
  1  2  2
  2  3  2
  2  4  1
  2  5  1
  5  6  1
  6  7  1
  7  8  1
  8  9  1
M  END
> <ZINC_ID>
1697301

> <Docking_Score>
-25.131

> <Vendor>
Enamine

$$$$
C5H10O6
  MOLSOFT 06181908472D

 11 10  0  0  1  0  0  0  0  0999 V2000
    1.4000    0.0000    0.0000 O   0  0  0
    2.1000    1.2124    0.0000 C   0  0  0
    1.4000    2.4249    0.0000 O   0  0  0
    3.5000    1.2124    0.0000 C   0  0  1
    4.2000    0.0000    0.0000 O   0  0  0
    4.2000    2.4249    0.0000 C   0  0  2
    3.5000    3.6373    0.0000 O   0  0  0
    5.6000    2.4249    0.0000 C   0  0  2
    6.3000    1.2124    0.0000 O   0  0  0
    6.3000    3.6373    0.0000 C   0  0  0
    7.7000    3.6373    0.0000 O   0  0  0
  1  2  2
  2  3  1
  2  4  1
  4  5  1  6
  4  6  1
  6  7  1  6
  6  8  1
  8  9  1  1
  8 10  1
 10 11  1
M  END
> <ZINC_ID>
895294

> <Docking_Score>
-25.129

> <Vendor>
Aksci

$$$$
C4H6N4O2
  MOLSOFT 06181908472D

 10 10  0  0  0  0  0  0  0  0999 V2000
   -1.4000   -0.0000    0.0000 N   0  0  0
   -0.0000   -0.0000    0.0000 C   0  0  0
    0.8229    1.1326    0.0000 N   0  0  0
    2.1544    0.7000    0.0000 C   0  0  0
    3.2870    1.5229    0.0000 C   0  0  0
    3.1407    2.9152    0.0000 C   0  0  0
    1.8617    3.4847    0.0000 O   0  0  0
    4.2733    3.7381    0.0000 O   0  0  0
    2.1544   -0.7000    0.0000 N   0  0  0
    0.8229   -1.1326    0.0000 N   0  0  0
  1  2  1
  2  3  2
  3  4  1
  5  6  1
  6  7  2
  6  8  1
  4  5  1
  4  9  2
 10  2  1
  9 10  1
M  END
> <ZINC_ID>
2573009

> <Docking_Score>
-25.116

> <Vendor>
Enamine

$$$$
C3H6O3
  MOLSOFT 06181908472D

  6  5  0  0  0  0  0  0  0  0999 V2000
    1.4000    0.0000    0.0000 O   0  0  0
    2.1000    1.2124    0.0000 C   0  0  0
    1.4000    2.4249    0.0000 O   0  0  0
    3.5000    1.2124    0.0000 C   0  0  0
    4.2000    2.4249    0.0000 C   0  0  0
    5.6000    2.4249    0.0000 O   0  0  0
  1  2  2
  2  3  1
  2  4  1
  4  5  1
  5  6  1
M  END
> <ZINC_ID>
895452

> <Docking_Score>
-25.109

> <Vendor>
Aksci

$$$$
C9H17NO5
  MOLSOFT 06181908472D

 15 14  0  0  1  0  0  0  0  0999 V2000
    1.4000    0.0000    0.0000 C   0  0  0
    2.1000    1.2124    0.0000 C   0  0  0
    3.3124    0.5124    0.0000 C   0  0  0
    0.8876    1.9124    0.0000 C   0  0  0
   -0.3249    1.2124    0.0000 O   0  0  0
    2.8000    2.4249    0.0000 C   0  0  1
    2.1000    3.6373    0.0000 O   0  0  0
    4.2000    2.4249    0.0000 C   0  0  0
    4.9000    1.2124    0.0000 O   0  0  0
    4.9000    3.6373    0.0000 N   0  0  0
    6.3000    3.6373    0.0000 C   0  0  0
    7.0000    4.8497    0.0000 C   0  0  0
    8.4000    4.8497    0.0000 C   0  0  0
    9.1000    3.6373    0.0000 O   0  0  0
    9.1000    6.0622    0.0000 O   0  0  0
  1  2  1
  2  3  1
  4  5  1
  2  4  1
  2  6  1
  6  7  1  1
  6  8  1
  8  9  2
  8 10  1
 10 11  1
 11 12  1
 12 13  1
 13 14  2
 13 15  1
M  END
> <ZINC_ID>
5356910

> <Docking_Score>
-25.104

> <Vendor>
ACROS

$$$$
C3H2N2O3
  MOLSOFT 06181908472D

  8  8  0  0  0  0  0  0  0  0999 V2000
   -2.1000    1.2124    0.0000 O   0  0  0
   -1.4000   -0.0000    0.0000 C   0  0  0
   -2.1000   -1.2124    0.0000 O   0  0  0
   -0.0000   -0.0000    0.0000 C   0  0  0
    0.8229    1.1326    0.0000 N   0  0  0
    2.1544    0.7000    0.0000 C   0  0  0
    2.1544   -0.7000    0.0000 O   0  0  0
    0.8229   -1.1326    0.0000 N   0  0  0
  1  2  2
  2  3  1
  2  4  1
  4  5  1
  5  6  2
  6  7  1
  8  4  2
  7  8  1
M  END
> <ZINC_ID>
20357828

> <Docking_Score>
-25.103

> <Vendor>
Combiblocks

$$$$
C3H5NO3
  MOLSOFT 06181908472D

  7  6  0  0  0  0  0  0  0  0999 V2000
    1.4000    0.0000    0.0000 N   0  0  0
    2.1000    1.2124    0.0000 C   0  0  0
    1.4000    2.4249    0.0000 O   0  0  0
    3.5000    1.2124    0.0000 C   0  0  0
    4.2000    2.4249    0.0000 C   0  0  0
    3.5000    3.6373    0.0000 O   0  0  0
    5.6000    2.4249    0.0000 O   0  0  0
  1  2  1
  2  3  2
  2  4  1
  4  5  1
  5  6  2
  5  7  1
M  END
> <ZINC_ID>
901948

> <Docking_Score>
-25.094

> <Vendor>
Enamine

$$$$
C4H7NO4S
  MOLSOFT 06181908472D

 10 10  0  0  1  0  0  0  0  0999 V2000
   -2.1000    1.2124    0.0000 O   0  0  0
   -1.4000   -0.0000    0.0000 C   0  0  0
   -2.1000   -1.2124    0.0000 O   0  0  0
   -0.0000   -0.0000    0.0000 C   0  0  1
    0.8229    1.1326    0.0000 C   0  0  0
    2.1544    0.7000    0.0000 C   0  0  0
    2.1544   -0.7000    0.0000 S   0  0  0
    2.4455   -2.0694    0.0000 O   0  0  0
    3.5467   -0.5537    0.0000 O   0  0  0
    0.8229   -1.1326    0.0000 N   0  0  0
  1  2  2
  2  3  1
  4  2  1  1
  4  5  1
  5  6  1
  6  7  1
  7  8  2
  7  9  2
 10  4  1
  7 10  1
M  END
> <ZINC_ID>
12649690

> <Docking_Score>
-25.092

> <Vendor>
Combiblocks

$$$$
C10H17NO3
  MOLSOFT 06181908472D

 14 14  0  0  1  0  0  0  0  0999 V2000
   -4.2000   -2.4249    0.0000 C   0  0  0
   -3.5000   -1.2124    0.0000 C   0  0  0
   -2.1000   -1.2124    0.0000 C   0  0  0
   -1.4000   -0.0000    0.0000 C   0  0  1
   -2.1000    1.2124    0.0000 C   0  0  0
   -0.0000   -0.0000    0.0000 N   0  0  0
    0.8229    1.1326    0.0000 C   0  0  0
    2.1544    0.7000    0.0000 C   0  0  1
    3.2870    1.5229    0.0000 C   0  0  0
    4.5660    0.9535    0.0000 O   0  0  0
    3.1407    2.9152    0.0000 O   0  0  0
    2.1544   -0.7000    0.0000 C   0  0  0
    0.8229   -1.1326    0.0000 C   0  0  0
    0.3903   -2.4641    0.0000 O   0  0  0
  1  2  1
  2  3  1
  3  4  1
  4  5  1  1
  4  6  1
  6  7  1
  7  8  1
  9 10  2
  9 11  1
  8  9  1  1
  8 12  1
 13  6  1
 12 13  1
 13 14  2
M  END
> <ZINC_ID>
7262897

> <Docking_Score>
-25.084

> <Vendor>
Enamine

$$$$
C10H18N4O6
  MOLSOFT 06181908472D

 20 19  0  0  1  0  0  0  0  0999 V2000
    1.4000    0.0000    0.0000 N   0  0  0
    2.1000    1.2124    0.0000 C   0  0  0
    3.5000    1.2124    0.0000 N   0  0  0
    4.2000    2.4249    0.0000 C   0  0  0
    5.6000    2.4249    0.0000 C   0  0  0
    6.3000    3.6373    0.0000 C   0  0  0
    7.7000    3.6373    0.0000 C   0  0  2
    8.4000    2.4249    0.0000 N   0  0  0
    8.4000    4.8497    0.0000 C   0  0  0
    7.7000    6.0622    0.0000 O   0  0  0
    9.8000    4.8497    0.0000 O   0  0  0
    1.4000    2.4249    0.0000 N   0  0  0
   -0.0000    2.4249    0.0000 C   0  0  1
   -0.7000    3.6373    0.0000 C   0  0  0
   -2.1000    3.6373    0.0000 C   0  0  0
   -2.8000    2.4249    0.0000 O   0  0  0
   -2.8000    4.8497    0.0000 O   0  0  0
   -0.7000    1.2124    0.0000 C   0  0  0
   -2.1000    1.2124    0.0000 O   0  0  0
   -0.0000    0.0000    0.0000 O   0  0  0
  1  2  2
  3  4  1
  4  5  1
  5  6  1
  6  7  1
  7  8  1  1
  7  9  1
  9 10  2
  9 11  1
  2  3  1
  2 12  1
 12 13  1
 14 15  1
 15 16  2
 15 17  1
 13 14  1  6
 13 18  1
 18 19  2
 18 20  1
M  END
> <ZINC_ID>
1529646

> <Docking_Score>
-25.08

> <Vendor>
Sialbb

$$$$
C5H6O4
  MOLSOFT 06181908472D

  9  9  0  0  1  0  0  0  0  0999 V2000
   -1.4000   -0.0000    0.0000 O   0  0  0
   -0.0000   -0.0000    0.0000 C   0  0  0
    0.8229    1.1326    0.0000 C   0  0  0
    2.1544    0.7000    0.0000 C   0  0  0
    2.1544   -0.7000    0.0000 C   0  0  1
    3.2870   -1.5229    0.0000 C   0  0  0
    3.1407   -2.9152    0.0000 O   0  0  0
    4.5660   -0.9535    0.0000 O   0  0  0
    0.8229   -1.1326    0.0000 O   0  0  0
  1  2  2
  2  3  1
  3  4  1
  4  5  1
  6  7  2
  6  8  1
  5  6  1  1
  9  2  1
  5  9  1
M  END
> <ZINC_ID>
391838

> <Docking_Score>
-25.073

> <Vendor>
Enamine

$$$$
C6H8O4
  MOLSOFT 06181908472D

 10 10  0  0  1  0  0  0  0  0999 V2000
   -1.4000   -2.4249    0.0000 O   0  0  0
   -2.1000   -1.2124    0.0000 C   0  0  0
   -3.5000   -1.2124    0.0000 O   0  0  0
   -1.4000   -0.0000    0.0000 C   0  0  0
   -0.0000   -0.0000    0.0000 C   0  0  1
    0.8229    1.1326    0.0000 C   0  0  0
    2.1544    0.7000    0.0000 C   0  0  0
    2.1544   -0.7000    0.0000 C   0  0  0
    3.2870   -1.5229    0.0000 O   0  0  0
    0.8229   -1.1326    0.0000 O   0  0  0
  1  2  2
  2  3  1
  2  4  1
  5  4  1  1
  5  6  1
  6  7  1
  7  8  1
  8  9  2
 10  5  1
  8 10  1
M  END
> <ZINC_ID>
3649505

> <Docking_Score>
-25.068

> <Vendor>
Synquest

$$$$
C7H9NO4
  MOLSOFT 06181908472D

 12 12  0  0  0  0  0  0  0  0999 V2000
   -2.1000   -1.2124    0.0000 C   0  0  0
   -1.4000   -0.0000    0.0000 O   0  0  0
   -0.0000   -0.0000    0.0000 C   0  0  0
    0.8229    1.1326    0.0000 C   0  0  0
    2.1544    0.7000    0.0000 C   0  0  0
    3.2870    1.5229    0.0000 C   0  0  0
    3.1407    2.9152    0.0000 C   0  0  0
    4.2733    3.7381    0.0000 C   0  0  0
    5.5522    3.1687    0.0000 O   0  0  0
    4.1269    5.1305    0.0000 O   0  0  0
    2.1544   -0.7000    0.0000 O   0  0  0
    0.8229   -1.1326    0.0000 N   0  0  0
  1  2  1
  2  3  1
  3  4  1
  4  5  2
  6  7  1
  7  8  1
  8  9  2
  8 10  1
  5  6  1
  5 11  1
 12  3  2
 11 12  1
M  END
> <ZINC_ID>
810178

> <Docking_Score>
-25.066

> <Vendor>
Sialbb

$$$$
C8H13NO4
  MOLSOFT 06181908472D

 13 13  0  0  0  0  0  0  0  0999 V2000
   -3.5000   -3.6373    0.0000 O   0  0  0
   -4.2000   -2.4249    0.0000 C   0  0  0
   -5.6000   -2.4249    0.0000 O   0  0  0
   -3.5000   -1.2124    0.0000 C   0  0  0
   -2.1000   -1.2124    0.0000 C   0  0  0
   -1.4000    0.0000    0.0000 C   0  0  0
   -2.1000    1.2124    0.0000 O   0  0  0
    0.0000    0.0000    0.0000 N   0  0  0
    0.7000    1.2124    0.0000 C   0  0  0
    2.1000    1.2124    0.0000 C   0  0  0
    2.8000   -0.0000    0.0000 O   0  0  0
    2.1000   -1.2124    0.0000 C   0  0  0
    0.7000   -1.2124    0.0000 C   0  0  0
  1  2  2
  2  3  1
  2  4  1
  4  5  1
  5  6  1
  6  7  2
  6  8  1
  8  9  1
  9 10  1
 10 11  1
 11 12  1
 13  8  1
 12 13  1
M  END
> <ZINC_ID>
294572

> <Docking_Score>
-25.065

> <Vendor>
Synquest

$$$$
C5H8O3
  MOLSOFT 06181908472D

  8  8  0  0  1  0  0  0  0  0999 V2000
   -2.1000    1.2124    0.0000 O   0  0  0
   -1.4000   -0.0000    0.0000 C   0  0  0
   -2.1000   -1.2124    0.0000 O   0  0  0
   -0.0000   -0.0000    0.0000 C   0  0  1
    0.8229    1.1326    0.0000 C   0  0  0
    2.1544    0.7000    0.0000 C   0  0  0
    2.1544   -0.7000    0.0000 C   0  0  0
    0.8229   -1.1326    0.0000 O   0  0  0
  1  2  2
  2  3  1
  4  2  1  1
  4  5  1
  5  6  1
  6  7  1
  8  4  1
  7  8  1
M  END
> <ZINC_ID>
4262032

> <Docking_Score>
-25.063

> <Vendor>
ACROS

$$$$
C3H5N5O2
  MOLSOFT 06181908472D

 10 10  0  0  0  0  0  0  0  0999 V2000
   -1.4000   -0.0000    0.0000 N   0  0  0
   -0.0000   -0.0000    0.0000 C   0  0  0
    0.8229    1.1326    0.0000 N   0  0  0
    2.1544    0.7000    0.0000 N   0  0  0
    2.1544   -0.7000    0.0000 N   0  0  0
    0.8229   -1.1326    0.0000 N   0  0  0
    0.3903   -2.4641    0.0000 C   0  0  0
    1.3271   -3.5045    0.0000 C   0  0  0
    2.6965   -3.2134    0.0000 O   0  0  0
    0.8944   -4.8360    0.0000 O   0  0  0
  1  2  1
  2  3  2
  3  4  1
  4  5  2
  6  2  1
  5  6  1
  6  7  1
  7  8  1
  8  9  2
  8 10  1
M  END
> <ZINC_ID>
4143886

> <Docking_Score>
-25.055

> <Vendor>
Synquest

$$$$
C7H7NO3S
  MOLSOFT 06181908472D

 12 12  0  0  0  0  0  0  0  0999 V2000
   -3.5000   -3.6373    0.0000 O   0  0  0
   -4.2000   -2.4249    0.0000 C   0  0  0
   -5.6000   -2.4249    0.0000 O   0  0  0
   -3.5000   -1.2124    0.0000 C   0  0  0
   -2.1000   -1.2124    0.0000 N   0  0  0
   -1.4000   -0.0000    0.0000 C   0  0  0
   -2.1000    1.2124    0.0000 O   0  0  0
   -0.0000   -0.0000    0.0000 C   0  0  0
    0.8229    1.1326    0.0000 C   0  0  0
    2.1544    0.7000    0.0000 C   0  0  0
    2.1544   -0.7000    0.0000 C   0  0  0
    0.8229   -1.1326    0.0000 S   0  0  0
  1  2  2
  2  3  1
  2  4  1
  4  5  1
  5  6  1
  6  7  2
  6  8  1
  8  9  2
  9 10  1
 10 11  2
 12  8  1
 11 12  1
M  END
> <ZINC_ID>
43548

> <Docking_Score>
-25.053

> <Vendor>
Enamine

$$$$
C6H10O3
  MOLSOFT 06181908472D

  9  9  0  0  1  0  0  0  0  0999 V2000
   -1.4000   -2.4249    0.0000 O   0  0  0
   -2.1000   -1.2124    0.0000 C   0  0  0
   -3.5000   -1.2124    0.0000 O   0  0  0
   -1.4000   -0.0000    0.0000 C   0  0  0
   -0.0000   -0.0000    0.0000 C   0  0  1
    0.8229    1.1326    0.0000 C   0  0  0
    2.1544    0.7000    0.0000 C   0  0  0
    2.1544   -0.7000    0.0000 C   0  0  0
    0.8229   -1.1326    0.0000 O   0  0  0
  1  2  2
  2  3  1
  2  4  1
  5  4  1  1
  5  6  1
  6  7  1
  7  8  1
  9  5  1
  8  9  1
M  END
> <ZINC_ID>
4343718

> <Docking_Score>
-25.051

> <Vendor>
Enamine

$$$$
C11H22O3S
  MOLSOFT 06181908472D

 15 14  0  0  0  0  0  0  0  0999 V2000
    1.4000    0.0000    0.0000 C   0  0  0
    2.1000    1.2124    0.0000 C   0  0  0
    3.5000    1.2124    0.0000 C   0  0  0
    4.2000    2.4249    0.0000 C   0  0  0
    5.6000    2.4249    0.0000 C   0  0  0
    6.3000    3.6373    0.0000 C   0  0  0
    7.7000    3.6373    0.0000 C   0  0  0
    8.4000    4.8497    0.0000 C   0  0  0
    9.8000    4.8497    0.0000 S   0  0  1
   10.5000    3.6373    0.0000 O   0  0  0
   10.5000    6.0622    0.0000 C   0  0  0
   11.9000    6.0622    0.0000 C   0  0  0
   12.6000    7.2746    0.0000 C   0  0  0
   11.9000    8.4870    0.0000 O   0  0  0
   14.0000    7.2746    0.0000 O   0  0  0
  1  2  1
  2  3  1
  3  4  1
  4  5  1
  5  6  1
  6  7  1
  7  8  1
  8  9  1
  9 10  2  6
  9 11  1
 11 12  1
 12 13  1
 13 14  2
 13 15  1
M  END
> <ZINC_ID>
17357184

> <Docking_Score>
-25.051

> <Vendor>
Synquest

$$$$
C3H4N4O2
  MOLSOFT 06181908472D

  9  9  0  0  0  0  0  0  0  0999 V2000
   -1.4000   -2.4249    0.0000 O   0  0  0
   -2.1000   -1.2124    0.0000 C   0  0  0
   -3.5000   -1.2124    0.0000 O   0  0  0
   -1.4000   -0.0000    0.0000 C   0  0  0
   -0.0000   -0.0000    0.0000 C   0  0  0
    0.8229    1.1326    0.0000 N   0  0  0
    2.1544    0.7000    0.0000 N   0  0  0
    2.1544   -0.7000    0.0000 N   0  0  0
    0.8229   -1.1326    0.0000 N   0  0  0
  1  2  2
  2  3  1
  2  4  1
  4  5  1
  5  6  2
  6  7  1
  7  8  2
  9  5  1
  8  9  1
M  END
> <ZINC_ID>
5178980

> <Docking_Score>
-25.047

> <Vendor>
Enamine

$$$$
C8H18N2O3S
  MOLSOFT 06181908472D

 14 13  0  0  1  0  0  0  0  0999 V2000
    1.4000    0.0000    0.0000 C   0  0  0
    2.1000    1.2124    0.0000 C   0  0  0
    3.5000    1.2124    0.0000 C   0  0  0
    4.2000    2.4249    0.0000 C   0  0  0
    5.6000    2.4249    0.0000 S   0  0  2
    5.6000    3.8249    0.0000 N   0  0  0
    5.6000    1.0249    0.0000 O   0  0  0
    7.0000    2.4249    0.0000 C   0  0  0
    7.7000    3.6373    0.0000 C   0  0  0
    9.1000    3.6373    0.0000 C   0  0  2
    9.8000    2.4249    0.0000 N   0  0  0
    9.8000    4.8497    0.0000 C   0  0  0
    9.1000    6.0622    0.0000 O   0  0  0
   11.2000    4.8497    0.0000 O   0  0  0
  1  2  1
  2  3  1
  3  4  1
  4  5  1
  5  6  2  6
  5  7  2
  5  8  1
  8  9  1
  9 10  1
 10 11  1  1
 10 12  1
 12 13  2
 12 14  1
M  END
> <ZINC_ID>
1529986

> <Docking_Score>
-25.046

> <Vendor>
Synquest

$$$$
C5H9NO3
  MOLSOFT 06181908472D

  9  8  0  0  0  0  0  0  0  0999 V2000
    1.4000    0.0000    0.0000 C   0  0  0
    2.1000    1.2124    0.0000 C   0  0  0
    3.5000    1.2124    0.0000 C   0  0  0
    4.2000    0.0000    0.0000 O   0  0  0
    4.2000    2.4249    0.0000 N   0  0  0
    5.6000    2.4249    0.0000 C   0  0  0
    6.3000    3.6373    0.0000 C   0  0  0
    5.6000    4.8497    0.0000 O   0  0  0
    7.7000    3.6373    0.0000 O   0  0  0
  1  2  1
  2  3  1
  3  4  2
  3  5  1
  5  6  1
  6  7  1
  7  8  2
  7  9  1
M  END
> <ZINC_ID>
1606052

> <Docking_Score>
-25.042

> <Vendor>
Aksci

$$$$
C8H16O3
  MOLSOFT 06181908472D

 11 10  0  0  1  0  0  0  0  0999 V2000
    1.4000    0.0000    0.0000 C   0  0  0
    2.1000    1.2124    0.0000 C   0  0  0
    3.5000    1.2124    0.0000 C   0  0  0
    4.2000    2.4249    0.0000 C   0  0  0
    5.6000    2.4249    0.0000 C   0  0  0
    6.3000    3.6373    0.0000 C   0  0  0
    7.7000    3.6373    0.0000 C   0  0  1
    8.4000    2.4249    0.0000 O   0  0  0
    8.4000    4.8497    0.0000 C   0  0  0
    7.7000    6.0622    0.0000 O   0  0  0
    9.8000    4.8497    0.0000 O   0  0  0
  1  2  1
  2  3  1
  3  4  1
  4  5  1
  5  6  1
  6  7  1
  7  8  1  6
  7  9  1
  9 10  2
  9 11  1
M  END
> <ZINC_ID>
2146644

> <Docking_Score>
-25.039

> <Vendor>
Combiblocks

$$$$
C9H8N4O5
  MOLSOFT 06181908472D

 18 19  0  0  0  0  0  0  0  0999 V2000
   -1.4000   -0.0000    0.0000 C   0  0  0
   -0.0000   -0.0000    0.0000 C   0  0  0
    0.8229    1.1326    0.0000 O   0  0  0
    2.1544    0.7000    0.0000 N   0  0  0
    2.1544   -0.7000    0.0000 C   0  0  0
    3.2870   -1.5229    0.0000 C   0  0  0
    3.1407   -2.9152    0.0000 O   0  0  0
    4.5660   -0.9535    0.0000 O   0  0  0
    0.8229   -1.1326    0.0000 C   0  0  0
    0.3903   -2.4641    0.0000 C   0  0  0
    1.3271   -3.5045    0.0000 N   0  0  0
    2.7194   -3.3582    0.0000 C   0  0  0
    3.2888   -4.6371    0.0000 C   0  0  0
    4.6582   -4.9282    0.0000 N   0  3  0
    5.0909   -6.2597    0.0000 O   0  0  0
    5.5950   -3.8878    0.0000 O   0  5  0
    2.2484   -5.5739    0.0000 C   0  0  0
    1.0360   -4.8739    0.0000 N   0  0  0
  1  2  1
  2  3  1
  3  4  1
  4  5  2
  6  7  2
  6  8  1
  5  6  1
  9  2  2
  5  9  1
  9 10  1
 10 11  1
 11 12  1
 12 13  2
 14 15  2
 14 16  1
 13 14  1
 13 17  1
 18 11  1
 17 18  2
M  CHG  2  14   1  16  -1
M  END
> <ZINC_ID>
4237687

> <Docking_Score>
-25.037

> <Vendor>
Enamine

$$$$
C3H5NO3
  MOLSOFT 06181908472D

  7  6  0  0  0  0  0  0  0  0999 V2000
    1.4000    0.0000    0.0000 C   0  0  0
    2.1000    1.2124    0.0000 N   0  0  0
    3.5000    1.2124    0.0000 C   0  0  0
    4.2000    0.0000    0.0000 O   0  0  0
    4.2000    2.4249    0.0000 C   0  0  0
    3.5000    3.6373    0.0000 O   0  0  0
    5.6000    2.4249    0.0000 O   0  0  0
  1  2  1
  2  3  1
  3  4  2
  3  5  1
  5  6  2
  5  7  1
M  END
> <ZINC_ID>
1529079

> <Docking_Score>
-25.031

> <Vendor>
Synquest

$$$$
C8H14O3
  MOLSOFT 06181908472D

 11 11  0  0  1  0  0  0  0  0999 V2000
   -2.1000   -1.2124    0.0000 C   0  0  0
   -1.4000    0.0000    0.0000 O   0  0  0
    0.0000    0.0000    0.0000 C   0  0  1
    0.7000    1.2124    0.0000 C   0  0  0
    2.1000    1.2124    0.0000 C   0  0  0
    2.8000   -0.0000    0.0000 C   0  0  0
    2.1000   -1.2124    0.0000 C   0  0  2
    2.8000   -2.4249    0.0000 C   0  0  0
    2.1000   -3.6373    0.0000 O   0  0  0
    4.2000   -2.4249    0.0000 O   0  0  0
    0.7000   -1.2124    0.0000 C   0  0  0
  1  2  1
  3  2  1  1
  3  4  1
  4  5  1
  5  6  1
  6  7  1
  8  9  2
  8 10  1
  7  8  1  6
 11  3  1
  7 11  1
M  END
> <ZINC_ID>
389558

> <Docking_Score>
-25.025

> <Vendor>
Aksci

$$$$
C4H8O3
  MOLSOFT 06181908472D

  7  6  0  0  1  0  0  0  0  0999 V2000
    1.4000    0.0000    0.0000 C   0  0  0
    2.1000    1.2124    0.0000 C   0  0  0
    3.5000    1.2124    0.0000 C   0  0  1
    4.2000    0.0000    0.0000 O   0  0  0
    4.2000    2.4249    0.0000 C   0  0  0
    3.5000    3.6373    0.0000 O   0  0  0
    5.6000    2.4249    0.0000 O   0  0  0
  1  2  1
  2  3  1
  3  4  1  6
  3  5  1
  5  6  2
  5  7  1
M  END
> <ZINC_ID>
1693559

> <Docking_Score>
-25.022

> <Vendor>
Enamine

$$$$
C5H10O4
  MOLSOFT 06181908472D

  9  8  0  0  0  0  0  0  0  0999 V2000
    1.4000    0.0000    0.0000 C   0  0  0
    2.1000    1.2124    0.0000 O   0  0  0
    3.5000    1.2124    0.0000 C   0  0  0
    4.2000    2.4249    0.0000 C   0  0  0
    5.6000    2.4249    0.0000 O   0  0  0
    6.3000    3.6373    0.0000 C   0  0  0
    7.7000    3.6373    0.0000 C   0  0  0
    8.4000    2.4249    0.0000 O   0  0  0
    8.4000    4.8497    0.0000 O   0  0  0
  1  2  1
  2  3  1
  3  4  1
  4  5  1
  5  6  1
  6  7  1
  7  8  2
  7  9  1
M  END
> <ZINC_ID>
1716460

> <Docking_Score>
-25.013

> <Vendor>
Sialbb

$$$$
C4H6N2O2S
  MOLSOFT 06181908472D

  9  9  0  0  1  0  0  0  0  0999 V2000
   -1.4000   -0.0000    0.0000 N   0  0  0
   -0.0000   -0.0000    0.0000 C   0  0  0
    0.8229    1.1326    0.0000 N   0  0  0
    2.1544    0.7000    0.0000 C   0  0  1
    3.2870    1.5229    0.0000 C   0  0  0
    4.5660    0.9535    0.0000 O   0  0  0
    3.1407    2.9152    0.0000 O   0  0  0
    2.1544   -0.7000    0.0000 C   0  0  0
    0.8229   -1.1326    0.0000 S   0  0  0
  1  2  1
  2  3  2
  3  4  1
  5  6  2
  5  7  1
  4  5  1  1
  4  8  1
  9  2  1
  8  9  1
M  END
> <ZINC_ID>
13350938

> <Docking_Score>
-25.006

> <Vendor>
Combiblocks

$$$$
C9H9N3O3
  MOLSOFT 06181908472D

 15 16  0  0  0  0  0  0  0  0999 V2000
   -1.4000   -0.0000    0.0000 C   0  0  0
   -0.0000   -0.0000    0.0000 C   0  0  0
    0.8229    1.1326    0.0000 O   0  0  0
    2.1544    0.7000    0.0000 N   0  0  0
    2.1544   -0.7000    0.0000 C   0  0  0
    3.2870   -1.5229    0.0000 C   0  0  0
    3.1407   -2.9152    0.0000 O   0  0  0
    4.5660   -0.9535    0.0000 O   0  0  0
    0.8229   -1.1326    0.0000 C   0  0  0
    0.3903   -2.4641    0.0000 C   0  0  0
    1.3271   -3.5045    0.0000 N   0  0  0
    2.7194   -3.3582    0.0000 C   0  0  0
    3.2888   -4.6371    0.0000 C   0  0  0
    2.2484   -5.5739    0.0000 N   0  0  0
    1.0360   -4.8739    0.0000 C   0  0  0
  1  2  1
  2  3  1
  3  4  1
  4  5  2
  6  7  2
  6  8  1
  5  6  1
  9  2  2
  5  9  1
  9 10  1
 10 11  1
 11 12  1
 12 13  2
 13 14  1
 15 11  1
 14 15  2
M  END
> <ZINC_ID>
13945716

> <Docking_Score>
-25.005

> <Vendor>
Combiblocks

$$$$
C7H12N2O5
  MOLSOFT 06181908472D

 14 13  0  0  1  0  0  0  0  0999 V2000
    1.4000    0.0000    0.0000 C   0  0  0
    2.1000    1.2124    0.0000 C   0  0  0
    3.5000    1.2124    0.0000 O   0  0  0
    4.2000    2.4249    0.0000 C   0  0  0
    3.5000    3.6373    0.0000 O   0  0  0
    5.6000    2.4249    0.0000 N   0  0  0
    6.3000    3.6373    0.0000 C   0  0  1
    7.7000    3.6373    0.0000 C   0  0  0
    8.4000    4.8497    0.0000 C   0  0  0
    7.7000    6.0622    0.0000 N   0  0  0
    9.8000    4.8497    0.0000 O   0  0  0
    5.6000    4.8497    0.0000 C   0  0  0
    6.3000    6.0622    0.0000 O   0  0  0
    4.2000    4.8497    0.0000 O   0  0  0
  1  2  1
  2  3  1
  3  4  1
  4  5  2
  4  6  1
  6  7  1
  8  9  1
  9 10  1
  9 11  2
  7  8  1  6
  7 12  1
 12 13  2
 12 14  1
M  END
> <ZINC_ID>
2572189

> <Docking_Score>
-24.99

> <Vendor>
Alfa

$$$$
C11H23NO2
  MOLSOFT 06181908472D

 14 13  0  0  0  0  0  0  0  0999 V2000
    1.4000    0.0000    0.0000 N   0  0  0
    2.1000    1.2124    0.0000 C   0  0  0
    3.5000    1.2124    0.0000 C   0  0  0
    4.2000    2.4249    0.0000 C   0  0  0
    5.6000    2.4249    0.0000 C   0  0  0
    6.3000    3.6373    0.0000 C   0  0  0
    7.7000    3.6373    0.0000 C   0  0  0
    8.4000    4.8497    0.0000 C   0  0  0
    9.8000    4.8497    0.0000 C   0  0  0
   10.5000    6.0622    0.0000 C   0  0  0
   11.9000    6.0622    0.0000 C   0  0  0
   12.6000    7.2746    0.0000 C   0  0  0
   11.9000    8.4870    0.0000 O   0  0  0
   14.0000    7.2746    0.0000 O   0  0  0
  1  2  1
  2  3  1
  3  4  1
  4  5  1
  5  6  1
  6  7  1
  7  8  1
  8  9  1
  9 10  1
 10 11  1
 11 12  1
 12 13  2
 12 14  1
M  END
> <ZINC_ID>
1763117

> <Docking_Score>
-24.87

> <Vendor>
ACROS

$$$$
C8H13NO3
  MOLSOFT 06181908472D

 12 12  0  0  0  0  0  0  0  0999 V2000
   -2.1000    1.2124    0.0000 C   0  0  0
   -1.4000    0.0000    0.0000 C   0  0  0
   -2.1000   -1.2124    0.0000 O   0  0  0
    0.0000    0.0000    0.0000 N   0  0  0
    0.7000    1.2124    0.0000 C   0  0  0
    2.1000    1.2124    0.0000 C   0  0  0
    2.8000   -0.0000    0.0000 C   0  0  0
    4.2000   -0.0000    0.0000 C   0  0  0
    4.9000   -1.2124    0.0000 O   0  0  0
    4.9000    1.2124    0.0000 O   0  0  0
    2.1000   -1.2124    0.0000 C   0  0  0
    0.7000   -1.2124    0.0000 C   0  0  0
  1  2  1
  2  3  2
  2  4  1
  4  5  1
  5  6  1
  6  7  1
  8  9  2
  8 10  1
  7  8  1
  7 11  1
 12  4  1
 11 12  1
M  END
> <ZINC_ID>
58130

> <Docking_Score>
-24.854

> <Vendor>
Alfa

$$$$
C6H8O3
  MOLSOFT 06181908472D

  9  9  0  0  1  0  0  0  0  0999 V2000
   -1.4000   -0.0000    0.0000 O   0  0  0
   -0.0000   -0.0000    0.0000 C   0  0  0
    0.8229    1.1326    0.0000 C   0  0  0
    2.1544    0.7000    0.0000 C   0  0  0
    2.1544   -0.7000    0.0000 C   0  0  1
    3.2870   -1.5229    0.0000 C   0  0  0
    3.1407   -2.9152    0.0000 O   0  0  0
    4.5660   -0.9535    0.0000 O   0  0  0
    0.8229   -1.1326    0.0000 C   0  0  0
  1  2  2
  2  3  1
  3  4  1
  4  5  1
  6  7  2
  6  8  1
  5  6  1  1
  9  2  1
  5  9  1
M  END
> <ZINC_ID>
404131

> <Docking_Score>
-24.845

> <Vendor>
ACROS

$$$$
C6H10O4
  MOLSOFT 06181908472D

 10  9  0  0  0  0  0  0  0  0999 V2000
    1.4000    0.0000    0.0000 C   0  0  0
    2.1000    1.2124    0.0000 C   0  0  0
    3.5000    1.2124    0.0000 O   0  0  0
    4.2000    2.4249    0.0000 C   0  0  0
    3.5000    3.6373    0.0000 O   0  0  0
    5.6000    2.4249    0.0000 C   0  0  0
    6.3000    3.6373    0.0000 C   0  0  0
    7.7000    3.6373    0.0000 C   0  0  0
    8.4000    2.4249    0.0000 O   0  0  0
    8.4000    4.8497    0.0000 O   0  0  0
  1  2  1
  2  3  1
  3  4  1
  4  5  2
  4  6  1
  6  7  1
  7  8  1
  8  9  2
  8 10  1
M  END
> <ZINC_ID>
2004473

> <Docking_Score>
-24.793

> <Vendor>
ACROS

$$$$
C6H10O4
  MOLSOFT 06181908472D

 10  9  0  0  0  0  0  0  0  0999 V2000
    1.4000    0.0000    0.0000 C   0  0  0
    2.1000    1.2124    0.0000 C   0  0  0
    3.5000    1.2124    0.0000 O   0  0  0
    4.2000    2.4249    0.0000 C   0  0  0
    3.5000    3.6373    0.0000 O   0  0  0
    5.6000    2.4249    0.0000 C   0  0  0
    6.3000    3.6373    0.0000 C   0  0  0
    7.7000    3.6373    0.0000 C   0  0  0
    8.4000    2.4249    0.0000 O   0  0  0
    8.4000    4.8497    0.0000 O   0  0  0
  1  2  1
  2  3  1
  3  4  1
  4  5  2
  4  6  1
  6  7  1
  7  8  1
  8  9  2
  8 10  1
M  END
> <ZINC_ID>
1542866

> <Docking_Score>
-24.78

> <Vendor>
Alfa

$$$$
C2H7O4P
  MOLSOFT 06181908472D

  7  6  0  0  0  0  0  0  0  0999 V2000
    1.4000    0.0000    0.0000 C   0  0  0
    2.1000    1.2124    0.0000 O   0  0  0
    3.5000    1.2124    0.0000 P   0  0  0
    3.5000    2.6124    0.0000 O   0  0  0
    3.5000   -0.1876    0.0000 O   0  0  0
    4.9000    1.2124    0.0000 O   0  0  0
    5.6000    2.4249    0.0000 C   0  0  0
  1  2  1
  2  3  1
  3  4  2
  3  5  1
  3  6  1
  6  7  1
M  END
> <ZINC_ID>
3957811

> <Docking_Score>
-24.717

> <Vendor>
ACROS

$$$$
C5H6N2O2S
  MOLSOFT 06181908472D

 10 10  0  0  0  0  0  0  0  0999 V2000
   -1.4000   -0.0000    0.0000 N   0  0  0
   -0.0000   -0.0000    0.0000 C   0  0  0
    0.8229    1.1326    0.0000 N   0  0  0
    2.1544    0.7000    0.0000 C   0  0  0
    3.2870    1.5229    0.0000 C   0  0  0
    3.1407    2.9152    0.0000 C   0  0  0
    1.8617    3.4847    0.0000 O   0  0  0
    4.2733    3.7381    0.0000 O   0  0  0
    2.1544   -0.7000    0.0000 C   0  0  0
    0.8229   -1.1326    0.0000 S   0  0  0
  1  2  1
  2  3  2
  3  4  1
  5  6  1
  6  7  2
  6  8  1
  4  5  1
  4  9  2
 10  2  1
  9 10  1
M  END
> <ZINC_ID>
155667

> <Docking_Score>
-24.697

> <Vendor>
Alfa

$$$$
C12H22O11
  MOLSOFT 06181908472D

 23 24  0  0  1  0  0  0  0  0999 V2000
   -2.1000   -1.2124    0.0000 O   0  0  0
   -1.4000    0.0000    0.0000 C   0  0  0
    0.0000    0.0000    0.0000 C   0  0  1
    0.7000    1.2124    0.0000 O   0  0  0
    2.1000    1.2124    0.0000 C   0  0  2
    2.8000    2.4249    0.0000 O   0  0  0
    2.8000   -0.0000    0.0000 C   0  0  2
    4.2000   -0.0000    0.0000 O   0  0  0
    2.1000   -1.2124    0.0000 C   0  0  1
    2.8000   -2.4249    0.0000 O   0  0  0
    0.7000   -1.2124    0.0000 C   0  0  2
   -0.0000   -2.4249    0.0000 O   0  0  0
    0.7000   -3.6373    0.0000 C   0  0  2
    2.1000   -3.6373    0.0000 O   0  0  0
    2.8000   -4.8497    0.0000 C   0  0  2
    4.2000   -4.8497    0.0000 C   0  0  0
    4.9000   -3.6373    0.0000 O   0  0  0
    2.1000   -6.0622    0.0000 C   0  0  2
    2.8000   -7.2746    0.0000 O   0  0  0
    0.7000   -6.0622    0.0000 C   0  0  2
    0.0000   -7.2746    0.0000 O   0  0  0
   -0.0000   -4.8497    0.0000 C   0  0  1
   -1.4000   -4.8497    0.0000 O   0  0  0
  1  2  1
  3  2  1  1
  3  4  1
  4  5  1
  5  6  1  6
  5  7  1
  7  8  1  6
  7  9  1
  9 10  1  1
 11  3  1
  9 11  1
 11 12  1  6
 13 12  1  6
 13 14  1
 14 15  1
 16 17  1
 15 16  1  6
 15 18  1
 18 19  1  6
 18 20  1
 20 21  1  6
 22 13  1
 20 22  1
 22 23  1  1
M  END
> <ZINC_ID>
4095793

> <Docking_Score>
-24.693

> <Vendor>
Alfa

$$$$
C18H36N4O11
  MOLSOFT 06181908472D

 33 35  0  0  1  0  0  0  0  0999 V2000
   -2.1000   -1.2124    0.0000 N   0  0  0
   -1.4000    0.0000    0.0000 C   0  0  0
    0.0000    0.0000    0.0000 C   0  0  1
    0.7000    1.2124    0.0000 O   0  0  0
    2.1000    1.2124    0.0000 C   0  0  2
    2.8000    2.4249    0.0000 O   0  0  0
    2.1000    3.6373    0.0000 C   0  0  2
    0.7000    3.6373    0.0000 C   0  0  1
   -0.0000    2.4249    0.0000 N   0  0  0
   -0.0000    4.8497    0.0000 C   0  0  0
    0.7000    6.0622    0.0000 C   0  0  2
   -0.0000    7.2746    0.0000 N   0  0  0
    2.1000    6.0622    0.0000 C   0  0  2
    2.8000    7.2746    0.0000 O   0  0  0
    2.1000    8.4870    0.0000 C   0  0  1
    0.7000    8.4870    0.0000 O   0  0  0
   -0.0000    9.6995    0.0000 C   0  0  1
   -1.4000    9.6995    0.0000 C   0  0  0
   -2.1000    8.4871    0.0000 O   0  0  0
    0.7000   10.9119    0.0000 C   0  0  1
   -0.0000   12.1244    0.0000 O   0  0  0
    2.1000   10.9119    0.0000 C   0  0  1
    2.8000   12.1244    0.0000 N   0  0  0
    2.8000    9.6995    0.0000 C   0  0  2
    4.2000    9.6995    0.0000 O   0  0  0
    2.8000    4.8497    0.0000 C   0  0  2
    4.2000    4.8497    0.0000 O   0  0  0
    2.8000   -0.0000    0.0000 C   0  0  1
    4.2000   -0.0000    0.0000 O   0  0  0
    2.1000   -1.2124    0.0000 C   0  0  1
    2.8000   -2.4249    0.0000 O   0  0  0
    0.7000   -1.2124    0.0000 C   0  0  2
   -0.0000   -2.4249    0.0000 O   0  0  0
  1  2  1
  3  2  1  1
  3  4  1
  4  5  1
  7  6  1  6
  7  8  1
  8  9  1  1
  8 10  1
 10 11  1
 11 12  1  6
 11 13  1
 15 14  1  1
 15 16  1
 16 17  1
 18 19  1
 17 18  1  1
 17 20  1
 20 21  1  1
 20 22  1
 22 23  1  1
 24 15  1
 22 24  1
 24 25  1  6
 13 14  1  6
 26  7  1
 13 26  1
 26 27  1  6
  5  6  1  6
  5 28  1
 28 29  1  1
 28 30  1
 30 31  1  1
 32  3  1
 30 32  1
 32 33  1  6
M  END
> <ZINC_ID>
169290028

> <Docking_Score>
-24.532

> <Vendor>
ACROS

$$$$
C11H16N8O8
  MOLSOFT 06181908472D

 27 28  0  0  1  0  0  0  0  0999 V2000
   -5.6000   -4.8497    0.0000 O   0  0  0
   -6.3000   -3.6373    0.0000 C   0  0  0
   -5.6000   -2.4249    0.0000 N   0  0  0
   -4.2000   -2.4249    0.0000 C   0  0  0
   -3.5000   -1.2124    0.0000 N   0  0  0
   -2.1000   -1.2124    0.0000 C   0  0  0
   -1.4000   -2.4249    0.0000 O   0  0  0
   -1.4000   -0.0000    0.0000 N   0  0  0
   -0.0000   -0.0000    0.0000 C   0  0  1
    0.8229    1.1326    0.0000 C   0  0  0
    0.3903    2.4641    0.0000 O   0  0  0
    2.1544    0.7000    0.0000 N   0  0  0
    2.1544   -0.7000    0.0000 C   0  0  0
    3.2870   -1.5229    0.0000 O   0  0  0
    0.8229   -1.1326    0.0000 N   0  0  0
    0.3903   -2.4641    0.0000 C   0  0  0
    1.3271   -3.5045    0.0000 O   0  0  0
   -7.7000   -3.6373    0.0000 N   0  0  0
   -8.4000   -4.8497    0.0000 C   0  0  1
   -7.8306   -6.1287    0.0000 C   0  0  0
   -6.4612   -6.4198    0.0000 O   0  0  0
   -8.8710   -7.0655    0.0000 N   0  0  0
  -10.0834   -6.3655    0.0000 C   0  0  0
  -11.3624   -6.9349    0.0000 O   0  0  0
   -9.7923   -4.9961    0.0000 N   0  0  0
  -10.7291   -3.9557    0.0000 C   0  0  0
  -12.0985   -4.2468    0.0000 O   0  0  0
  1  2  2
  3  4  1
  4  5  1
  5  6  1
  6  7  2
  6  8  1
  9  8  1  1
  9 10  1
 10 11  2
 10 12  1
 12 13  1
 13 14  2
 15  9  1
 13 15  1
 15 16  1
 16 17  1
  2  3  1
  2 18  1
 19 18  1  1
 19 20  1
 20 21  2
 20 22  1
 22 23  1
 23 24  2
 25 19  1
 23 25  1
 25 26  1
 26 27  1
M  END
> <ZINC_ID>
4245710

> <Docking_Score>
-24.459

> <Vendor>
ACROS

$$$$
C6H8O3
  MOLSOFT 06181908472D

  9  9  0  0  1  0  0  0  0  0999 V2000
   -1.4000   -0.0000    0.0000 O   0  0  0
   -0.0000   -0.0000    0.0000 C   0  0  0
    0.8229    1.1326    0.0000 C   0  0  0
    2.1544    0.7000    0.0000 C   0  0  0
    2.1544   -0.7000    0.0000 C   0  0  2
    3.2870   -1.5229    0.0000 C   0  0  0
    3.1407   -2.9152    0.0000 O   0  0  0
    4.5660   -0.9535    0.0000 O   0  0  0
    0.8229   -1.1326    0.0000 C   0  0  0
  1  2  2
  2  3  1
  3  4  1
  4  5  1
  6  7  2
  6  8  1
  5  6  1  6
  9  2  1
  5  9  1
M  END
> <ZINC_ID>
404130

> <Docking_Score>
-24.457

> <Vendor>
ACROS

$$$$
C5H8O3
  MOLSOFT 06181908472D

  8  8  0  0  1  0  0  0  0  0999 V2000
   -2.1000    1.2124    0.0000 O   0  0  0
   -1.4000   -0.0000    0.0000 C   0  0  0
   -2.1000   -1.2124    0.0000 O   0  0  0
   -0.0000   -0.0000    0.0000 C   0  0  1
    0.8229    1.1326    0.0000 C   0  0  0
    2.1544    0.7000    0.0000 C   0  0  0
    2.1544   -0.7000    0.0000 O   0  0  0
    0.8229   -1.1326    0.0000 C   0  0  0
  1  2  2
  2  3  1
  4  2  1  1
  4  5  1
  5  6  1
  6  7  1
  8  4  1
  7  8  1
M  END
> <ZINC_ID>
389610

> <Docking_Score>
-24.438

> <Vendor>
ACROS

$$$$
C2H2O3
  MOLSOFT 06181908472D

  5  4  0  0  0  0  0  0  0  0999 V2000
    1.4000    0.0000    0.0000 O   0  0  0
    2.1000    1.2124    0.0000 C   0  0  0
    3.5000    1.2124    0.0000 C   0  0  0
    4.2000    0.0000    0.0000 O   0  0  0
    4.2000    2.4249    0.0000 O   0  0  0
  1  2  2
  2  3  1
  3  4  2
  3  5  1
M  END
> <ZINC_ID>
4658554

> <Docking_Score>
-24.434

> <Vendor>
ACROS

$$$$
C6H11NO4
  MOLSOFT 06181908472D

 11 10  0  0  1  0  0  0  0  0999 V2000
    1.4000    0.0000    0.0000 N   0  0  0
    2.1000    1.2124    0.0000 C   0  0  1
    3.5000    1.2124    0.0000 C   0  0  0
    4.2000    2.4249    0.0000 C   0  0  0
    5.6000    2.4249    0.0000 C   0  0  0
    6.3000    3.6373    0.0000 C   0  0  0
    5.6000    4.8497    0.0000 O   0  0  0
    7.7000    3.6373    0.0000 O   0  0  0
    1.4000    2.4249    0.0000 C   0  0  0
    2.1000    3.6373    0.0000 O   0  0  0
   -0.0000    2.4249    0.0000 O   0  0  0
  2  1  1  6
  3  4  1
  4  5  1
  5  6  1
  6  7  2
  6  8  1
  2  3  1
  2  9  1
  9 10  2
  9 11  1
M  END
> <ZINC_ID>
1532798

> <Docking_Score>
-24.395

> <Vendor>
Alfa

$$$$
C5H6N2O4
  MOLSOFT 06181908472D

 11 11  0  0  1  0  0  0  0  0999 V2000
   -1.4000   -2.4249    0.0000 O   0  0  0
   -2.1000   -1.2124    0.0000 C   0  0  0
   -3.5000   -1.2124    0.0000 O   0  0  0
   -1.4000   -0.0000    0.0000 C   0  0  0
   -0.0000   -0.0000    0.0000 C   0  0  1
    0.8229    1.1326    0.0000 N   0  0  0
    2.1544    0.7000    0.0000 C   0  0  0
    3.2870    1.5229    0.0000 O   0  0  0
    2.1544   -0.7000    0.0000 N   0  0  0
    0.8229   -1.1326    0.0000 C   0  0  0
    0.3903   -2.4641    0.0000 O   0  0  0
  1  2  2
  2  3  1
  2  4  1
  5  4  1  1
  5  6  1
  6  7  1
  7  8  2
  7  9  1
 10  5  1
  9 10  1
 10 11  2
M  END
> <ZINC_ID>
901817

> <Docking_Score>
-24.327

> <Vendor>
ACROS

$$$$
C13H21F3N2O5
  MOLSOFT 06181908472D

 23 22  0  0  1  0  0  0  0  0999 V2000
    1.4000    0.0000    0.0000 C   0  0  0
    2.1000    1.2124    0.0000 C   0  0  0
    3.3124    0.5124    0.0000 C   0  0  0
    0.8876    1.9124    0.0000 C   0  0  0
    2.8000    2.4249    0.0000 O   0  0  0
    4.2000    2.4249    0.0000 C   0  0  0
    4.9000    1.2124    0.0000 O   0  0  0
    4.9000    3.6373    0.0000 N   0  0  0
    6.3000    3.6373    0.0000 C   0  0  2
    7.0000    4.8497    0.0000 C   0  0  0
    8.4000    4.8497    0.0000 C   0  0  0
    9.1000    6.0622    0.0000 C   0  0  0
   10.5000    6.0622    0.0000 C   0  0  0
   11.2000    7.2746    0.0000 N   0  0  0
   12.6000    7.2746    0.0000 C   0  0  0
   13.3000    6.0622    0.0000 O   0  0  0
   13.3000    8.4870    0.0000 C   0  0  0
   12.0876    9.1870    0.0000 F   0  0  0
   14.5124    7.7870    0.0000 F   0  0  0
   14.0000    9.6995    0.0000 F   0  0  0
    7.0000    2.4249    0.0000 C   0  0  0
    6.3000    1.2124    0.0000 O   0  0  0
    8.4000    2.4249    0.0000 O   0  0  0
  1  2  1
  2  3  1
  2  4  1
  2  5  1
  5  6  1
  6  7  2
  6  8  1
  8  9  1
 10 11  1
 11 12  1
 12 13  1
 13 14  1
 14 15  1
 15 16  2
 15 17  1
 17 18  1
 17 19  1
 17 20  1
  9 10  1  6
  9 21  1
 21 22  2
 21 23  1
M  END
> <ZINC_ID>
1640316

> <Docking_Score>
-24.324

> <Vendor>
Alfa

$$$$
C2H8NO3P
  MOLSOFT 06181908472D

  7  6  0  0  0  0  0  0  0  0999 V2000
    1.4000    0.0000    0.0000 N   0  0  0
    2.1000    1.2124    0.0000 C   0  0  0
    3.5000    1.2124    0.0000 C   0  0  0
    4.2000    2.4249    0.0000 P   0  0  0
    5.4124    1.7249    0.0000 O   0  0  0
    2.9876    3.1249    0.0000 O   0  0  0
    4.9000    3.6373    0.0000 O   0  0  0
  1  2  1
  2  3  1
  3  4  1
  4  5  2
  4  6  1
  4  7  1
M  END
> <ZINC_ID>
55157330

> <Docking_Score>
-24.318

> <Vendor>
ACROS

$$$$
C5H6N2O4
  MOLSOFT 06181908472D

 11 11  0  0  1  0  0  0  0  0999 V2000
   -1.4000   -2.4249    0.0000 O   0  0  0
   -2.1000   -1.2124    0.0000 C   0  0  0
   -3.5000   -1.2124    0.0000 O   0  0  0
   -1.4000   -0.0000    0.0000 C   0  0  0
   -0.0000   -0.0000    0.0000 C   0  0  2
    0.8229    1.1326    0.0000 N   0  0  0
    2.1544    0.7000    0.0000 C   0  0  0
    3.2870    1.5229    0.0000 O   0  0  0
    2.1544   -0.7000    0.0000 N   0  0  0
    0.8229   -1.1326    0.0000 C   0  0  0
    0.3903   -2.4641    0.0000 O   0  0  0
  1  2  2
  2  3  1
  2  4  1
  5  4  1  6
  5  6  1
  6  7  1
  7  8  2
  7  9  1
 10  5  1
  9 10  1
 10 11  2
M  END
> <ZINC_ID>
1081234

> <Docking_Score>
-24.302

> <Vendor>
ACROS

$$$$
C5H9NO4
  MOLSOFT 06181908472D

 10  9  0  0  1  0  0  0  0  0999 V2000
    1.4000    0.0000    0.0000 C   0  0  0
    2.1000    1.2124    0.0000 C   0  0  2
    3.3124    0.5124    0.0000 N   0  0  0
    2.8000    2.4249    0.0000 C   0  0  0
    4.2000    2.4249    0.0000 C   0  0  0
    4.9000    1.2124    0.0000 O   0  0  0
    4.9000    3.6373    0.0000 O   0  0  0
    0.8876    1.9124    0.0000 C   0  0  0
    0.8876    3.3124    0.0000 O   0  0  0
   -0.3249    1.2124    0.0000 O   0  0  0
  2  1  1  1
  2  3  1
  4  5  1
  5  6  2
  5  7  1
  2  4  1
  2  8  1
  8  9  2
  8 10  1
M  END
> <ZINC_ID>
2516276

> <Docking_Score>
-24.262

> <Vendor>
ACROS

$$$$
C3H5NO3
  MOLSOFT 06181908472D

  7  6  0  0  0  0  0  0  0  0999 V2000
    1.4000    0.0000    0.0000 O   0  0  0
    2.1000    1.2124    0.0000 C   0  0  0
    3.5000    1.2124    0.0000 N   0  0  0
    4.2000    2.4249    0.0000 C   0  0  0
    5.6000    2.4249    0.0000 C   0  0  0
    6.3000    1.2124    0.0000 O   0  0  0
    6.3000    3.6373    0.0000 O   0  0  0
  1  2  2
  2  3  1
  3  4  1
  4  5  1
  5  6  2
  5  7  1
M  END
> <ZINC_ID>
1733657

> <Docking_Score>
-24.235

> <Vendor>
Alfa

$$$$
C5H8FNO4
  MOLSOFT 06181908472D

 11 10  0  0  1  0  0  0  0  0999 V2000
    1.4000    0.0000    0.0000 N   0  0  0
    2.1000    1.2124    0.0000 C   0  0  1
    3.5000    1.2124    0.0000 C   0  0  0
    4.2000    2.4249    0.0000 C   0  0  2
    3.5000    3.6373    0.0000 F   0  0  0
    5.6000    2.4249    0.0000 C   0  0  0
    6.3000    1.2124    0.0000 O   0  0  0
    6.3000    3.6373    0.0000 O   0  0  0
    1.4000    2.4249    0.0000 C   0  0  0
    2.1000    3.6373    0.0000 O   0  0  0
   -0.0000    2.4249    0.0000 O   0  0  0
  2  1  1  6
  3  4  1
  4  5  1  6
  4  6  1
  6  7  2
  6  8  1
  2  3  1
  2  9  1
  9 10  2
  9 11  1
M  END
> <ZINC_ID>
2169442

> <Docking_Score>
-24.233

> <Vendor>
Alfa

$$$$
CH6NO3P
  MOLSOFT 06181908472D

  6  5  0  0  0  0  0  0  0  0999 V2000
    1.4000    0.0000    0.0000 N   0  0  0
    2.1000    1.2124    0.0000 C   0  0  0
    3.5000    1.2124    0.0000 P   0  0  0
    3.5000    2.6124    0.0000 O   0  0  0
    3.5000   -0.1876    0.0000 O   0  0  0
    4.9000    1.2124    0.0000 O   0  0  0
  1  2  1
  2  3  1
  3  4  2
  3  5  1
  3  6  1
M  END
> <ZINC_ID>
8418339

> <Docking_Score>
-24.231

> <Vendor>
ACROS

$$$$
C7H8O3
  MOLSOFT 06181908472D

 10 10  0  0  0  0  0  0  0  0999 V2000
   -4.2000   -0.0000    0.0000 O   0  0  0
   -3.5000   -1.2124    0.0000 C   0  0  0
   -4.2000   -2.4249    0.0000 O   0  0  0
   -2.1000   -1.2124    0.0000 C   0  0  0
   -1.4000   -0.0000    0.0000 C   0  0  0
   -0.0000   -0.0000    0.0000 C   0  0  0
    0.8229    1.1326    0.0000 C   0  0  0
    2.1544    0.7000    0.0000 C   0  0  0
    2.1544   -0.7000    0.0000 C   0  0  0
    0.8229   -1.1326    0.0000 O   0  0  0
  1  2  2
  2  3  1
  2  4  1
  4  5  1
  5  6  1
  6  7  2
  7  8  1
  8  9  2
 10  6  1
  9 10  1
M  END
> <ZINC_ID>
152318

> <Docking_Score>
-24.209

> <Vendor>
Alfa

$$$$
C6H12O6
  MOLSOFT 06181908472D

 12 12  0  0  1  0  0  0  0  0999 V2000
   -2.1000   -1.2124    0.0000 O   0  0  0
   -1.4000    0.0000    0.0000 C   0  0  0
    0.0000    0.0000    0.0000 C   0  0  2
    0.7000    1.2124    0.0000 O   0  0  0
    2.1000    1.2124    0.0000 C   0  0  2
    2.8000    2.4249    0.0000 O   0  0  0
    2.8000   -0.0000    0.0000 C   0  0  1
    4.2000   -0.0000    0.0000 O   0  0  0
    2.1000   -1.2124    0.0000 C   0  0  2
    2.8000   -2.4249    0.0000 O   0  0  0
    0.7000   -1.2124    0.0000 C   0  0  2
   -0.0000   -2.4249    0.0000 O   0  0  0
  1  2  1
  3  2  1  6
  3  4  1
  4  5  1
  5  6  1  6
  5  7  1
  7  8  1  1
  7  9  1
  9 10  1  6
 11  3  1
  9 11  1
 11 12  1  6
M  END
> <ZINC_ID>
895055

> <Docking_Score>
-24.197

> <Vendor>
ACROS

$$$$
C5H12N2O3S
  MOLSOFT 06181908472D

 11 10  0  0  1  0  0  0  0  0999 V2000
    1.4000    0.0000    0.0000 C   0  0  0
    2.1000    1.2124    0.0000 S   0  0  2
    3.3124    0.5124    0.0000 N   0  0  0
    0.8876    1.9124    0.0000 O   0  0  0
    2.8000    2.4249    0.0000 C   0  0  0
    4.2000    2.4249    0.0000 C   0  0  0
    4.9000    3.6373    0.0000 C   0  0  2
    4.2000    4.8497    0.0000 N   0  0  0
    6.3000    3.6373    0.0000 C   0  0  0
    7.0000    2.4249    0.0000 O   0  0  0
    7.0000    4.8497    0.0000 O   0  0  0
  2  1  1  6
  2  3  2
  2  4  2
  2  5  1
  5  6  1
  6  7  1
  7  8  1  6
  7  9  1
  9 10  2
  9 11  1
M  END
> <ZINC_ID>
12366795

> <Docking_Score>
-24.194

> <Vendor>
ACROS

$$$$
C12H22O11
  MOLSOFT 06181908472D

 23 24  0  0  1  0  0  0  0  0999 V2000
   -2.1000   -1.2124    0.0000 O   0  0  0
   -1.4000    0.0000    0.0000 C   0  0  0
    0.0000    0.0000    0.0000 C   0  0  2
    0.7000    1.2124    0.0000 O   0  0  0
    2.1000    1.2124    0.0000 C   0  0  1
    2.8000    2.4249    0.0000 O   0  0  0
    2.1000    3.6373    0.0000 C   0  0  2
    0.7000    3.6373    0.0000 C   0  0  2
   -0.0000    2.4249    0.0000 C   0  0  0
   -1.4000    2.4249    0.0000 O   0  0  0
   -0.0000    4.8497    0.0000 O   0  0  0
    0.7000    6.0622    0.0000 C   0  0  1
   -0.0000    7.2746    0.0000 O   0  0  0
    2.1000    6.0622    0.0000 C   0  0  2
    2.8000    7.2746    0.0000 O   0  0  0
    2.8000    4.8497    0.0000 C   0  0  2
    4.2000    4.8497    0.0000 O   0  0  0
    2.8000   -0.0000    0.0000 C   0  0  1
    4.2000   -0.0000    0.0000 O   0  0  0
    2.1000   -1.2124    0.0000 C   0  0  1
    2.8000   -2.4249    0.0000 O   0  0  0
    0.7000   -1.2124    0.0000 C   0  0  2
   -0.0000   -2.4249    0.0000 O   0  0  0
  1  2  1
  3  2  1  6
  3  4  1
  4  5  1
  7  6  1  6
  7  8  1
  9 10  1
  8  9  1  6
  8 11  1
 11 12  1
 12 13  1  1
 12 14  1
 14 15  1  6
 16  7  1
 14 16  1
 16 17  1  6
  5  6  1  1
  5 18  1
 18 19  1  1
 18 20  1
 20 21  1  1
 22  3  1
 20 22  1
 22 23  1  6
M  END
> <ZINC_ID>
12404986

> <Docking_Score>
-24.193

> <Vendor>
ACROS

$$$$
C13H21BN2O4
  MOLSOFT 06181908472D

 20 22  0  0  0  0  0  0  0  0999 V2000
   -1.0404    0.9368    0.0000 C   0  0  0
   -0.0000   -0.0000    0.0000 C   0  0  0
   -1.0404   -0.9368    0.0000 C   0  0  0
    0.8229    1.1326    0.0000 O   0  0  0
    2.1544    0.7000    0.0000 B   0  0  0
    3.2870    1.5229    0.0000 C   0  0  0
    3.2870    2.9229    0.0000 C   0  0  0
    4.6185    3.3555    0.0000 N   0  0  0
    5.4414    2.2229    0.0000 N   0  0  0
    6.8414    2.2229    0.0000 C   0  0  0
    7.5414    3.4353    0.0000 C   0  0  0
    6.9719    4.7143    0.0000 O   0  0  0
    8.0124    5.6511    0.0000 C   0  0  0
    9.2248    4.9511    0.0000 C   0  0  0
    8.9337    3.5817    0.0000 O   0  0  0
    4.6185    1.0903    0.0000 C   0  0  0
    2.1544   -0.7000    0.0000 O   0  0  0
    0.8229   -1.1326    0.0000 C   0  0  0
   -0.3895   -1.8326    0.0000 C   0  0  0
    1.3923   -2.4116    0.0000 C   0  0  0
  1  2  1
  2  3  1
  2  4  1
  4  5  1
  6  7  1
  7  8  2
  8  9  1
 10 11  1
 11 12  1
 12 13  1
 13 14  1
 15 11  1
 14 15  1
  9 10  1
 16  6  2
  9 16  1
  5  6  1
  5 17  1
 18  2  1
 17 18  1
 18 19  1
 18 20  1
M  END
> <ZINC_ID>
169743592

> <Docking_Score>
-24.177

> <Vendor>
ACROS

$$$$
C6H10O3
  MOLSOFT 06181908472D

  9  9  0  0  0  0  0  0  0  0999 V2000
   -2.1000    1.2124    0.0000 O   0  0  0
   -1.4000    0.0000    0.0000 C   0  0  0
   -2.1000   -1.2124    0.0000 O   0  0  0
    0.0000    0.0000    0.0000 C   0  0  0
    0.7000    1.2124    0.0000 C   0  0  0
    2.1000    1.2124    0.0000 C   0  0  0
    2.8000   -0.0000    0.0000 O   0  0  0
    2.1000   -1.2124    0.0000 C   0  0  0
    0.7000   -1.2124    0.0000 C   0  0  0
  1  2  2
  2  3  1
  2  4  1
  4  5  1
  5  6  1
  6  7  1
  7  8  1
  9  4  1
  8  9  1
M  END
> <ZINC_ID>
1555499

> <Docking_Score>
-24.115

> <Vendor>
Alfa

$$$$
C5H4O5S
  MOLSOFT 06181908472D

 11 11  0  0  0  0  0  0  0  0999 V2000
   -2.1000   -1.2124    0.0000 O   0  0  0
   -1.4000   -0.0000    0.0000 C   0  0  0
   -0.0000   -0.0000    0.0000 C   0  0  0
    0.8229    1.1326    0.0000 C   0  0  0
    2.1544    0.7000    0.0000 C   0  0  0
    2.1544   -0.7000    0.0000 C   0  0  0
    3.2870   -1.5229    0.0000 S   0  0  0
    4.1099   -0.3903    0.0000 O   0  0  0
    2.4641   -2.6555    0.0000 O   0  0  0
    4.4196   -2.3458    0.0000 O   0  0  0
    0.8229   -1.1326    0.0000 O   0  0  0
  1  2  2
  2  3  1
  3  4  2
  4  5  1
  5  6  2
  7  8  2
  7  9  2
  7 10  1
  6  7  1
 11  3  1
  6 11  1
M  END
> <ZINC_ID>
2140936

> <Docking_Score>
-24.115

> <Vendor>
Alfa

$$$$
C18H36N4O11
  MOLSOFT 06181908472D

 33 35  0  0  1  0  0  0  0  0999 V2000
   -2.1000   -1.2124    0.0000 N   0  0  0
   -1.4000    0.0000    0.0000 C   0  0  0
    0.0000    0.0000    0.0000 C   0  0  2
    0.7000    1.2124    0.0000 O   0  0  0
    2.1000    1.2124    0.0000 C   0  0  2
    2.8000    2.4249    0.0000 O   0  0  0
    2.1000    3.6373    0.0000 C   0  0  1
    0.7000    3.6373    0.0000 C   0  0  1
   -0.0000    2.4249    0.0000 N   0  0  0
   -0.0000    4.8497    0.0000 C   0  0  0
    0.7000    6.0622    0.0000 C   0  0  2
   -0.0000    7.2746    0.0000 N   0  0  0
    2.1000    6.0622    0.0000 C   0  0  2
    2.8000    7.2746    0.0000 O   0  0  0
    2.1000    8.4870    0.0000 C   0  0  1
    0.7000    8.4870    0.0000 O   0  0  0
   -0.0000    9.6995    0.0000 C   0  0  1
   -1.4000    9.6995    0.0000 C   0  0  0
   -2.1000    8.4871    0.0000 O   0  0  0
    0.7000   10.9119    0.0000 C   0  0  1
   -0.0000   12.1244    0.0000 O   0  0  0
    2.1000   10.9119    0.0000 C   0  0  1
    2.8000   12.1244    0.0000 N   0  0  0
    2.8000    9.6995    0.0000 C   0  0  2
    4.2000    9.6995    0.0000 O   0  0  0
    2.8000    4.8497    0.0000 C   0  0  2
    4.2000    4.8497    0.0000 O   0  0  0
    2.8000   -0.0000    0.0000 C   0  0  1
    4.2000   -0.0000    0.0000 O   0  0  0
    2.1000   -1.2124    0.0000 C   0  0  1
    2.8000   -2.4249    0.0000 O   0  0  0
    0.7000   -1.2124    0.0000 C   0  0  2
   -0.0000   -2.4249    0.0000 O   0  0  0
  1  2  1
  3  2  1  6
  3  4  1
  4  5  1
  7  6  1  1
  7  8  1
  8  9  1  1
  8 10  1
 10 11  1
 11 12  1  6
 11 13  1
 15 14  1  1
 15 16  1
 16 17  1
 18 19  1
 17 18  1  1
 17 20  1
 20 21  1  1
 20 22  1
 22 23  1  1
 24 15  1
 22 24  1
 24 25  1  6
 13 14  1  6
 26  7  1
 13 26  1
 26 27  1  6
  5  6  1  6
  5 28  1
 28 29  1  1
 28 30  1
 30 31  1  1
 32  3  1
 30 32  1
 32 33  1  6
M  END
> <ZINC_ID>
169290025

> <Docking_Score>
-24.112

> <Vendor>
ACROS

$$$$
C8H18N2O3S
  MOLSOFT 06181908472D

 14 13  0  0  1  0  0  0  0  0999 V2000
    1.4000    0.0000    0.0000 C   0  0  0
    2.1000    1.2124    0.0000 C   0  0  0
    3.5000    1.2124    0.0000 C   0  0  0
    4.2000    2.4249    0.0000 C   0  0  0
    5.6000    2.4249    0.0000 S   0  0  1
    5.6000    3.8249    0.0000 N   0  0  0
    5.6000    1.0249    0.0000 O   0  0  0
    7.0000    2.4249    0.0000 C   0  0  0
    7.7000    3.6373    0.0000 C   0  0  0
    9.1000    3.6373    0.0000 C   0  0  2
    9.8000    2.4249    0.0000 N   0  0  0
    9.8000    4.8497    0.0000 C   0  0  0
    9.1000    6.0622    0.0000 O   0  0  0
   11.2000    4.8497    0.0000 O   0  0  0
  1  2  1
  2  3  1
  3  4  1
  4  5  1
  5  6  2  1
  5  7  2
  5  8  1
  8  9  1
  9 10  1
 10 11  1  1
 10 12  1
 12 13  2
 12 14  1
M  END
> <ZINC_ID>
12405097

> <Docking_Score>
-24.096

> <Vendor>
ACROS

$$$$
C6H7NO2S
  MOLSOFT 06181908472D

 10 10  0  0  0  0  0  0  0  0999 V2000
   -1.4000   -0.0000    0.0000 C   0  0  0
   -0.0000   -0.0000    0.0000 C   0  0  0
    0.8229    1.1326    0.0000 N   0  0  0
    2.1544    0.7000    0.0000 C   0  0  0
    3.2870    1.5229    0.0000 C   0  0  0
    3.1407    2.9152    0.0000 C   0  0  0
    1.8617    3.4847    0.0000 O   0  0  0
    4.2733    3.7381    0.0000 O   0  0  0
    2.1544   -0.7000    0.0000 C   0  0  0
    0.8229   -1.1326    0.0000 S   0  0  0
  1  2  1
  2  3  2
  3  4  1
  5  6  1
  6  7  2
  6  8  1
  4  5  1
  4  9  2
 10  2  1
  9 10  1
M  END
> <ZINC_ID>
407385

> <Docking_Score>
-24.086

> <Vendor>
ACROS

$$$$
C11H19NO4
  MOLSOFT 06181908472D

 16 16  0  0  0  0  0  0  0  0999 V2000
   -3.5000   -2.6124    0.0000 C   0  0  0
   -3.5000   -1.2124    0.0000 C   0  0  0
   -3.5000    0.1876    0.0000 C   0  0  0
   -4.9000   -1.2124    0.0000 C   0  0  0
   -2.1000   -1.2124    0.0000 O   0  0  0
   -1.4000    0.0000    0.0000 C   0  0  0
   -2.1000    1.2124    0.0000 O   0  0  0
    0.0000    0.0000    0.0000 N   0  0  0
    0.7000    1.2124    0.0000 C   0  0  0
    2.1000    1.2124    0.0000 C   0  0  0
    2.8000   -0.0000    0.0000 C   0  0  0
    4.2000   -0.0000    0.0000 C   0  0  0
    4.9000   -1.2124    0.0000 O   0  0  0
    4.9000    1.2124    0.0000 O   0  0  0
    2.1000   -1.2124    0.0000 C   0  0  0
    0.7000   -1.2124    0.0000 C   0  0  0
  1  2  1
  2  3  1
  2  4  1
  2  5  1
  5  6  1
  6  7  2
  6  8  1
  8  9  1
  9 10  1
 10 11  1
 12 13  2
 12 14  1
 11 12  1
 11 15  1
 16  8  1
 15 16  1
M  END
> <ZINC_ID>
57562

> <Docking_Score>
-24.066

> <Vendor>
Alfa

$$$$
C5H5NO3
  MOLSOFT 06181908472D

  9  9  0  0  0  0  0  0  0  0999 V2000
   -1.4000   -0.0000    0.0000 C   0  0  0
   -0.0000   -0.0000    0.0000 C   0  0  0
    0.8229    1.1326    0.0000 N   0  0  0
    2.1544    0.7000    0.0000 C   0  0  0
    3.2870    1.5229    0.0000 C   0  0  0
    4.5660    0.9535    0.0000 O   0  0  0
    3.1407    2.9152    0.0000 O   0  0  0
    2.1544   -0.7000    0.0000 C   0  0  0
    0.8229   -1.1326    0.0000 O   0  0  0
  1  2  1
  2  3  2
  3  4  1
  5  6  2
  5  7  1
  4  5  1
  4  8  2
  9  2  1
  8  9  1
M  END
> <ZINC_ID>
49538689

> <Docking_Score>
-24.048

> <Vendor>
ACROS

$$$$
C6H11NO4
  MOLSOFT 06181908472D

 11 10  0  0  1  0  0  0  0  0999 V2000
    1.4000    0.0000    0.0000 N   0  0  0
    2.1000    1.2124    0.0000 C   0  0  2
    3.5000    1.2124    0.0000 C   0  0  0
    4.2000    2.4249    0.0000 C   0  0  0
    5.6000    2.4249    0.0000 C   0  0  0
    6.3000    3.6373    0.0000 C   0  0  0
    5.6000    4.8497    0.0000 O   0  0  0
    7.7000    3.6373    0.0000 O   0  0  0
    1.4000    2.4249    0.0000 C   0  0  0
    2.1000    3.6373    0.0000 O   0  0  0
   -0.0000    2.4249    0.0000 O   0  0  0
  2  1  1  1
  3  4  1
  4  5  1
  5  6  1
  6  7  2
  6  8  1
  2  3  1
  2  9  1
  9 10  2
  9 11  1
M  END
> <ZINC_ID>
1678992

> <Docking_Score>
-24.036

> <Vendor>
Alfa

$$$$
C6H16NO3P
  MOLSOFT 06181908472D

 11 10  0  0  1  0  0  0  0  0999 V2000
    1.4000    0.0000    0.0000 C   0  0  0
    2.1000    1.2124    0.0000 C   0  0  0
    3.5000    1.2124    0.0000 C   0  0  0
    4.2000    2.4249    0.0000 C   0  0  0
    5.6000    2.4249    0.0000 C   0  0  0
    6.3000    3.6373    0.0000 C   0  0  2
    5.6000    4.8497    0.0000 N   0  0  0
    7.7000    3.6373    0.0000 P   0  0  0
    7.7000    5.0373    0.0000 O   0  0  0
    7.7000    2.2373    0.0000 O   0  0  0
    9.1000    3.6373    0.0000 O   0  0  0
  1  2  1
  2  3  1
  3  4  1
  4  5  1
  5  6  1
  6  7  1  6
  6  8  1
  8  9  2
  8 10  1
  8 11  1
M  END
> <ZINC_ID>
2569901

> <Docking_Score>
-24.032

> <Vendor>
ACROS

$$$$
C5H6O3
  MOLSOFT 06181908472D

  8  8  0  0  0  0  0  0  0  0999 V2000
   -1.4000   -0.0000    0.0000 O   0  0  0
    0.0000   -0.0000    0.0000 C   0  0  0
    0.9899    0.9899    0.0000 C   0  0  0
    1.9799    0.0000    0.0000 C   0  0  0
    3.3799    0.0000    0.0000 C   0  0  0
    4.0799   -1.2124    0.0000 O   0  0  0
    4.0799    1.2124    0.0000 O   0  0  0
    0.9899   -0.9899    0.0000 C   0  0  0
  1  2  2
  2  3  1
  3  4  1
  5  6  2
  5  7  1
  4  5  1
  8  2  1
  4  8  1
M  END
> <ZINC_ID>
4228181

> <Docking_Score>
-24.019

> <Vendor>
Alfa

$$$$
C12H22O11
  MOLSOFT 06181908472D

 23 24  0  0  1  0  0  0  0  0999 V2000
   -2.1000   -1.2124    0.0000 O   0  0  0
   -1.4000    0.0000    0.0000 C   0  0  0
    0.0000    0.0000    0.0000 C   0  0  2
    0.7000    1.2124    0.0000 O   0  0  0
    2.1000    1.2124    0.0000 C   0  0  1
    2.8000    2.4249    0.0000 O   0  0  0
    2.1000    3.6373    0.0000 C   0  0  2
    0.7000    3.6373    0.0000 C   0  0  2
   -0.0000    2.4249    0.0000 C   0  0  0
   -1.4000    2.4249    0.0000 O   0  0  0
   -0.0000    4.8497    0.0000 O   0  0  0
    0.7000    6.0622    0.0000 C   0  0  1
   -0.0000    7.2746    0.0000 O   0  0  0
    2.1000    6.0622    0.0000 C   0  0  2
    2.8000    7.2746    0.0000 O   0  0  0
    2.8000    4.8497    0.0000 C   0  0  1
    4.2000    4.8497    0.0000 O   0  0  0
    2.8000   -0.0000    0.0000 C   0  0  1
    4.2000   -0.0000    0.0000 O   0  0  0
    2.1000   -1.2124    0.0000 C   0  0  1
    2.8000   -2.4249    0.0000 O   0  0  0
    0.7000   -1.2124    0.0000 C   0  0  2
   -0.0000   -2.4249    0.0000 O   0  0  0
  1  2  1
  3  2  1  6
  3  4  1
  4  5  1
  7  6  1  6
  7  8  1
  9 10  1
  8  9  1  6
  8 11  1
 11 12  1
 12 13  1  1
 12 14  1
 14 15  1  6
 16  7  1
 14 16  1
 16 17  1  1
  5  6  1  1
  5 18  1
 18 19  1  1
 18 20  1
 20 21  1  1
 22  3  1
 20 22  1
 22 23  1  6
M  END
> <ZINC_ID>
12404988

> <Docking_Score>
-24.019

> <Vendor>
ACROS

$$$$
C2H8NO4P
  MOLSOFT 06181908472D

  8  7  0  0  0  0  0  0  0  0999 V2000
    1.4000    0.0000    0.0000 N   0  0  0
    2.1000    1.2124    0.0000 C   0  0  0
    3.5000    1.2124    0.0000 C   0  0  0
    4.2000    2.4249    0.0000 O   0  0  0
    5.6000    2.4249    0.0000 P   0  0  0
    5.6000    3.8249    0.0000 O   0  0  0
    5.6000    1.0249    0.0000 O   0  0  0
    7.0000    2.4249    0.0000 O   0  0  0
  1  2  1
  2  3  1
  3  4  1
  4  5  1
  5  6  2
  5  7  1
  5  8  1
M  END
> <ZINC_ID>
3870166

> <Docking_Score>
-24.018

> <Vendor>
ACROS

$$$$
C4H5N3O2
  MOLSOFT 06181908472D

  9  9  0  0  0  0  0  0  0  0999 V2000
   -1.4000   -2.4249    0.0000 O   0  0  0
   -2.1000   -1.2124    0.0000 C   0  0  0
   -3.5000   -1.2124    0.0000 O   0  0  0
   -1.4000   -0.0000    0.0000 C   0  0  0
   -0.0000   -0.0000    0.0000 N   0  0  0
    0.8229    1.1326    0.0000 C   0  0  0
    2.1544    0.7000    0.0000 N   0  0  0
    2.1544   -0.7000    0.0000 C   0  0  0
    0.8229   -1.1326    0.0000 N   0  0  0
  1  2  2
  2  3  1
  2  4  1
  4  5  1
  5  6  1
  6  7  2
  7  8  1
  9  5  1
  8  9  2
M  END
> <ZINC_ID>
2168219

> <Docking_Score>
-23.982

> <Vendor>
Alfa

$$$$
C6H12O3
  MOLSOFT 06181908472D

  9  8  0  0  1  0  0  0  0  0999 V2000
    1.4000    0.0000    0.0000 C   0  0  0
    2.1000    1.2124    0.0000 C   0  0  0
    1.4000    2.4249    0.0000 C   0  0  0
    3.5000    1.2124    0.0000 C   0  0  0
    4.2000    2.4249    0.0000 C   0  0  1
    3.5000    3.6373    0.0000 O   0  0  0
    5.6000    2.4249    0.0000 C   0  0  0
    6.3000    1.2124    0.0000 O   0  0  0
    6.3000    3.6373    0.0000 O   0  0  0
  1  2  1
  2  3  1
  2  4  1
  4  5  1
  5  6  1  1
  5  7  1
  7  8  2
  7  9  1
M  END
> <ZINC_ID>
407032

> <Docking_Score>
-23.756

> <Vendor>
Alfa

$$$$
C12H22O11
  MOLSOFT 06181908472D

 23 24  0  0  1  0  0  0  0  0999 V2000
   -2.1000   -1.2124    0.0000 O   0  0  0
   -1.4000    0.0000    0.0000 C   0  0  0
    0.0000    0.0000    0.0000 C   0  0  1
    0.7000    1.2124    0.0000 O   0  0  0
    2.1000    1.2124    0.0000 C   0  0  2
    2.8000    2.4249    0.0000 O   0  0  0
    2.1000    3.6373    0.0000 C   0  0  0
    2.8000    4.8497    0.0000 C   0  0  1
    2.2306    6.1287    0.0000 O   0  0  0
    3.2710    7.0655    0.0000 C   0  0  1
    4.0939    8.1981    0.0000 O   0  0  0
    2.2306    8.0023    0.0000 C   0  0  0
    0.8991    7.5696    0.0000 O   0  0  0
    4.4834    6.3655    0.0000 C   0  0  1
    5.7624    6.9349    0.0000 O   0  0  0
    4.1923    4.9961    0.0000 C   0  0  2
    5.1291    3.9557    0.0000 O   0  0  0
    2.8000   -0.0000    0.0000 C   0  0  2
    4.2000   -0.0000    0.0000 O   0  0  0
    2.1000   -1.2124    0.0000 C   0  0  1
    2.8000   -2.4249    0.0000 O   0  0  0
    0.7000   -1.2124    0.0000 C   0  0  2
   -0.0000   -2.4249    0.0000 O   0  0  0
  1  2  1
  3  2  1  1
  3  4  1
  4  5  1
  6  7  1
  8  7  1  1
  8  9  1
  9 10  1
 10 11  1  6
 12 13  1
 10 12  1
 10 14  1
 14 15  1  1
 16  8  1
 14 16  1
 16 17  1  6
  5  6  1  6
  5 18  1
 18 19  1  6
 18 20  1
 20 21  1  1
 22  3  1
 20 22  1
 22 23  1  6
M  END
> <ZINC_ID>
4095713

> <Docking_Score>
-23.598

> <Vendor>
ACROS

$$$$
C6H6N2O2
  MOLSOFT 06181908472D

 10 10  0  0  0  0  0  0  0  0999 V2000
    2.1000   -1.2124    0.0000 O   0  0  0
    0.7000   -1.2124    0.0000 C   0  0  0
    0.0000   -2.4249    0.0000 O   0  0  0
    0.0000    0.0000    0.0000 C   0  0  0
    0.7000    1.2124    0.0000 C   0  0  0
    2.1000    1.2124    0.0000 C   0  0  0
    2.9229    2.3451    0.0000 C   0  0  0
    4.2544    1.9124    0.0000 N   0  0  0
    4.2544    0.5124    0.0000 C   0  0  0
    2.9229    0.0798    0.0000 N   0  0  0
  1  2  2
  2  3  1
  2  4  1
  4  5  2
  5  6  1
  6  7  2
  7  8  1
  8  9  1
 10  6  1
  9 10  2
M  END
> <ZINC_ID>
13524067

> <Docking_Score>
-23.484

> <Vendor>
ACROS

$$$$
C5H9NO4
  MOLSOFT 06181908472D

 10  9  0  0  1  0  0  0  0  0999 V2000
    1.4000    0.0000    0.0000 N   0  0  0
    2.1000    1.2124    0.0000 C   0  0  1
    3.5000    1.2124    0.0000 C   0  0  0
    4.2000    2.4249    0.0000 C   0  0  0
    5.6000    2.4249    0.0000 C   0  0  0
    6.3000    1.2124    0.0000 O   0  0  0
    6.3000    3.6373    0.0000 O   0  0  0
    1.4000    2.4249    0.0000 C   0  0  0
    2.1000    3.6373    0.0000 O   0  0  0
   -0.0000    2.4249    0.0000 O   0  0  0
  2  1  1  6
  3  4  1
  4  5  1
  5  6  2
  5  7  1
  2  3  1
  2  8  1
  8  9  2
  8 10  1
M  END
> <ZINC_ID>
1482113

> <Docking_Score>
-23.421

> <Vendor>
ACROS

$$$$
C6H12O7
  MOLSOFT 06181908472D

 13 12  0  0  1  0  0  0  0  0999 V2000
    1.4000    0.0000    0.0000 O   0  0  0
    2.1000    1.2124    0.0000 C   0  0  0
    1.4000    2.4249    0.0000 O   0  0  0
    3.5000    1.2124    0.0000 C   0  0  2
    4.2000    0.0000    0.0000 O   0  0  0
    4.2000    2.4249    0.0000 C   0  0  1
    3.5000    3.6373    0.0000 O   0  0  0
    5.6000    2.4249    0.0000 C   0  0  2
    6.3000    1.2124    0.0000 O   0  0  0
    6.3000    3.6373    0.0000 C   0  0  2
    5.6000    4.8497    0.0000 O   0  0  0
    7.7000    3.6373    0.0000 C   0  0  0
    8.4000    4.8497    0.0000 O   0  0  0
  1  2  2
  2  3  1
  2  4  1
  4  5  1  1
  4  6  1
  6  7  1  1
  6  8  1
  8  9  1  1
  8 10  1
 10 11  1  6
 10 12  1
 12 13  1
M  END
> <ZINC_ID>
1531008

> <Docking_Score>
-23.406

> <Vendor>
ACROS

$$$$
C8H15NO3
  MOLSOFT 06181908472D

 12 11  0  0  0  0  0  0  0  0999 V2000
    1.4000    0.0000    0.0000 C   0  0  0
    2.1000    1.2124    0.0000 C   0  0  0
    1.4000    2.4249    0.0000 O   0  0  0
    3.5000    1.2124    0.0000 N   0  0  0
    4.2000    2.4249    0.0000 C   0  0  0
    5.6000    2.4249    0.0000 C   0  0  0
    6.3000    3.6373    0.0000 C   0  0  0
    7.7000    3.6373    0.0000 C   0  0  0
    8.4000    4.8497    0.0000 C   0  0  0
    9.8000    4.8497    0.0000 C   0  0  0
   10.5000    3.6373    0.0000 O   0  0  0
   10.5000    6.0622    0.0000 O   0  0  0
  1  2  1
  2  3  2
  2  4  1
  4  5  1
  5  6  1
  6  7  1
  7  8  1
  8  9  1
  9 10  1
 10 11  2
 10 12  1
M  END
> <ZINC_ID>
1683177

> <Docking_Score>
-23.34

> <Vendor>
Alfa

$$$$
C4H8O3
  MOLSOFT 06181908472D

  7  6  0  0  1  0  0  0  0  0999 V2000
    1.4000    0.0000    0.0000 C   0  0  0
    2.1000    1.2124    0.0000 C   0  0  2
    1.4000    2.4249    0.0000 O   0  0  0
    3.5000    1.2124    0.0000 C   0  0  0
    4.2000    2.4249    0.0000 C   0  0  0
    3.5000    3.6373    0.0000 O   0  0  0
    5.6000    2.4249    0.0000 O   0  0  0
  2  1  1  6
  2  3  1
  2  4  1
  4  5  1
  5  6  2
  5  7  1
M  END
> <ZINC_ID>
901665

> <Docking_Score>
-23.267

> <Vendor>
Alfa

$$$$
C4H9NO5S
  MOLSOFT 06181908472D

 11 10  0  0  1  0  0  0  0  0999 V2000
    1.4000    0.0000    0.0000 N   0  0  0
    2.1000    1.2124    0.0000 C   0  0  1
    3.5000    1.2124    0.0000 C   0  0  0
    4.2000    2.4249    0.0000 C   0  0  0
    5.6000    2.4249    0.0000 S   0  0  0
    5.6000    3.8249    0.0000 O   0  0  0
    5.6000    1.0249    0.0000 O   0  0  0
    7.0000    2.4249    0.0000 O   0  0  0
    1.4000    2.4249    0.0000 C   0  0  0
    2.1000    3.6373    0.0000 O   0  0  0
   -0.0000    2.4249    0.0000 O   0  0  0
  2  1  1  6
  3  4  1
  4  5  1
  5  6  2
  5  7  2
  5  8  1
  2  3  1
  2  9  1
  9 10  2
  9 11  1
M  END
> <ZINC_ID>
2567965

> <Docking_Score>
-23.186

> <Vendor>
Alfa

$$$$
C2H6O3S
  MOLSOFT 06181908472D

  6  5  0  0  0  0  0  0  0  0999 V2000
    1.4000    0.0000    0.0000 C   0  0  0
    2.1000    1.2124    0.0000 C   0  0  0
    3.5000    1.2124    0.0000 S   0  0  0
    3.5000    2.6124    0.0000 O   0  0  0
    3.5000   -0.1876    0.0000 O   0  0  0
    4.9000    1.2124    0.0000 O   0  0  0
  1  2  1
  2  3  1
  3  4  2
  3  5  2
  3  6  1
M  END
> <ZINC_ID>
3861350

> <Docking_Score>
-22.243

> <Vendor>
ACROS

$$$$
C16H32O5
  MOLSOFT 06181908472D

 21 20  0  0  1  0  0  0  0  0999 V2000
    1.4000    0.0000    0.0000 O   0  0  0
    2.1000    1.2124    0.0000 C   0  0  0
    1.4000    2.4249    0.0000 O   0  0  0
    3.5000    1.2124    0.0000 C   0  0  0
    4.2000    2.4249    0.0000 C   0  0  0
    5.6000    2.4249    0.0000 C   0  0  0
    6.3000    3.6373    0.0000 C   0  0  0
    7.7000    3.6373    0.0000 C   0  0  0
    8.4000    4.8497    0.0000 C   0  0  0
    9.8000    4.8497    0.0000 C   0  0  0
   10.5000    6.0622    0.0000 C   0  0  1
    9.8000    7.2746    0.0000 O   0  0  0
   11.9000    6.0622    0.0000 C   0  0  1
   12.6000    4.8497    0.0000 O   0  0  0
   12.6000    7.2746    0.0000 C   0  0  0
   14.0000    7.2746    0.0000 C   0  0  0
   14.7000    8.4870    0.0000 C   0  0  0
   16.1000    8.4870    0.0000 C   0  0  0
   16.8000    9.6995    0.0000 C   0  0  0
   18.2000    9.6995    0.0000 C   0  0  0
   18.9000   10.9119    0.0000 O   0  0  0
  1  2  2
  2  3  1
  2  4  1
  4  5  1
  5  6  1
  6  7  1
  7  8  1
  8  9  1
  9 10  1
 10 11  1
 11 12  1  1
 11 13  1
 13 14  1  6
 13 15  1
 15 16  1
 16 17  1
 17 18  1
 18 19  1
 19 20  1
 20 21  1
M  END
> <ZINC_ID>
4261791

> <Docking_Score>
-21.617

> <Vendor>
Alfa

$$$$
