C22H18N4O3
  MOLSOFT 07311914272D

 29 32  0  0  0  0  0  0  0  0999 V2000
    0.1344   -4.8213    0.0000 C   0  0  0
    1.3468   -4.1213    0.0000 C   0  0  0
    1.3468   -2.7213    0.0000 O   0  5  0
    2.5592   -4.8213    0.0000 O   0  0  0
   -1.0781   -4.1213    0.0000 N   0  0  0
   -2.2905   -4.8213    0.0000 C   0  0  0
   -2.2905   -6.2213    0.0000 C   0  0  0
   -1.0781   -6.9213    0.0000 C   0  0  0
    0.1344   -6.2213    0.0000 C   0  0  0
    1.4133   -6.7907    0.0000 C   0  0  0
    2.3501   -5.7503    0.0000 N   0  0  0
    1.6501   -4.5379    0.0000 N   0  0  0
    2.2195   -3.2589    0.0000 C   0  0  0
    3.6119   -3.1126    0.0000 C   0  0  0
    4.4348   -4.2452    0.0000 C   0  0  0
    5.8271   -4.0989    0.0000 C   0  0  0
    6.3965   -2.8199    0.0000 C   0  0  0
    5.5736   -1.6873    0.0000 C   0  0  0
    4.1813   -1.8336    0.0000 C   0  0  0
    0.2807   -4.8290    0.0000 C   0  0  0
   -3.5030   -4.1213    0.0000 N   0  0  0
   -3.5030   -2.7213    0.0000 C   0  0  0
   -4.7154   -2.0213    0.0000 C   0  0  0
   -4.7154   -0.6213    0.0000 C   0  0  0
   -3.5030    0.0787    0.0000 C   0  0  0
   -2.2905   -0.6213    0.0000 C   0  0  0
   -2.2905   -2.0213    0.0000 C   0  0  0
   -1.0781   -2.7213    0.0000 C   0  0  0
    0.1344   -2.0213    0.0000 O   0  0  0
  1  2  1
  1  5  1
  2  3  1
  2  4  2
  5  6  1
  5 28  1
  6  7  1
  6 21  2
  8  7  2
  8  9  1
  9 10  1
  9 20  2
 10 11  2
 11 12  1
 12 13  1
 12 20  1
 13 14  1
 14 15  1
 14 19  2
 15 16  2
 16 17  1
 17 18  2
 18 19  1
 21 22  1
 22 23  2
 22 27  1
 23 24  1
 24 25  2
 25 26  1
 26 27  2
 27 28  1
 28 29  2
M  ZZE   1 10,10,0,0,0,0,0,0;0,17,0,17,0,0,0,0,0,0,0
M  ZZE   2 10,10,0,0,0,0,0,0;0,17,0,17,0,0,0,0,0,0,0
M  ZZE   3 10,10,0,0,0,0,0,0;0,4,0,4,0,0,0,0,0,0,0
M  ZZE   4 10,10,0,0,0,0,0,0;0,4,0,4,0,0,0,0,0,0,0
M  ZZE   5 10,10,0,0,0,0,0,0;0,3,0,3,0,0,0,0,0,0,0
M  ZZE   6 10,10,0,0,0,0,0,0;0,17,0,17,0,0,0,0,0,0,0
M  ZZE   7 10,10,0,0,0,0,0,0;0,17,0,17,0,0,0,0,0,0,0
M  ZZE   8 10,10,0,0,0,0,0,0;0,17,0,17,0,0,0,0,0,0,0
M  ZZE   9 10,10,0,0,0,0,0,0;0,17,0,17,0,0,0,0,0,0,0
M  ZZE  10 10,10,0,0,0,0,0,0;0,17,0,17,0,0,0,0,0,0,0
M  ZZE  11 10,10,0,0,0,0,0,0;0,3,0,3,0,0,0,0,0,0,0
M  ZZE  12 10,10,0,0,0,0,0,0;0,3,0,3,0,0,0,0,0,0,0
M  ZZE  13 10,10,0,0,0,0,0,0;0,17,0,17,0,0,0,0,0,0,0
M  ZZE  14 10,10,0,0,0,0,0,0;0,17,0,17,0,0,0,0,0,0,0
M  ZZE  15 10,10,0,0,0,0,0,0;0,17,0,17,0,0,0,0,0,0,0
M  ZZE  16 10,10,0,0,0,0,0,0;0,17,0,17,0,0,0,0,0,0,0
M  ZZE  17 10,10,0,0,0,0,0,0;0,17,0,17,0,0,0,0,0,0,0
M  ZZE  18 10,10,0,0,0,0,0,0;0,17,0,17,0,0,0,0,0,0,0
M  ZZE  19 10,10,0,0,0,0,0,0;0,17,0,17,0,0,0,0,0,0,0
M  ZZE  20 10,10,0,0,0,0,0,0;0,17,0,17,0,0,0,0,0,0,0
M  ZZE  21 10,10,0,0,0,0,0,0;0,3,0,3,0,0,0,0,0,0,0
M  ZZE  22 10,10,0,0,0,0,0,0;0,17,0,17,0,0,0,0,0,0,0
M  ZZE  23 10,10,0,0,0,0,0,0;0,17,0,17,0,0,0,0,0,0,0
M  ZZE  24 10,10,0,0,0,0,0,0;0,17,0,17,0,0,0,0,0,0,0
M  ZZE  25 10,10,0,0,0,0,0,0;0,17,0,17,0,0,0,0,0,0,0
M  ZZE  26 10,10,0,0,0,0,0,0;0,17,0,17,0,0,0,0,0,0,0
M  ZZE  27 10,10,0,0,0,0,0,0;0,17,0,17,0,0,0,0,0,0,0
M  ZZE  28 10,10,0,0,0,0,0,0;0,17,0,17,0,0,0,0,0,0,0
M  ZZE  29 10,10,0,0,0,0,0,0;0,4,0,4,0,0,0,0,0,0,0
M  CHG  1   3  -1
M  END
> <L>
0

> <N>
0

> <Order>
  

> <idnumber>
Z1436758306

> <smiles>
C(C(O)=O)N1C(C=Cc2cnn(Cc3ccccc3)c2)=Nc2ccccc2C1=O

> <r_i_docking_score>
-5.051572

> <s_m_entry_id>
0

> <CO>
0

> <ord>
0

> <r_pdb_PDB_CRYST1_alpha>
0

> <cl>
0

> <chiral_flag>
0

> <r_pdb_PDB_CRYST1_beta>
0

> <version>
0

> <r_pdb_PDB_CRYST1_gamma>
0

> <i_pdb_PDB_CRYST1_z>
0

> <i_lp_mmshare_version>
0

> <i_m_Source_File_Index>
0

> <s_ppw_entry_id_backup>
0

> <b_ppw_prepared>
0

> <i_epik_Tot_Q>
0

> <b_ppw_assigned_bond_orders>
0

> <i_epik_Tot_abs_Q>
0

> <b_ppw_added_hydrogens>
0

> <b_ppw_treated_metals>
0

> <b_ppw_created_disulfur>
0

> <b_lp_Chiralities_Consistent>
0

> <b_ppw_deleted_far_waters>
0

> <r_lp_tautomer_probability>
0

> <b_ppw_ran_protassign>
0

> <i_f3d_flags>
0

> <i_i_glide_lignum>
0

> <i_i_glide_rotatable_bonds>
0

> <r_i_target_temperature>
0

> <b_ppw_ran_impref>
0

> <r_i_glide_metal>
0

> <i_glide_grid_version>
0

> <r_glide_gridbox_xrange>
0

> <r_glide_gridbox_yrange>
0

> <r_glide_gridbox_zrange>
0

> <r_glide_gridbox_ligxrange>
0

> <r_glide_gridbox_ligyrange>
0

> <i_i_glide_confnum>
0

> <i_i_glide_posenum>
0

> <r_glide_gridbox_ligzrange>
0

> <b_glide_receptor>
0

> <b_glide_conssat_A_ARG_221_H_hbond_>
0

> <b_glide_conssat_A_ARG_221_HE_hbond_>
0

> <b_glide_conssat_A_TYR_261_HH_hbond_>
0

> <b_m_subgroup_collapsed>
0

> <O>
69

> <CO_1>
0

> <ord_1>
0

> <cl_1>
0

> <ord_2>
0

> <cl_2>
0

> <CO_2>
0

> <cl_3>
0

$$$$
C15H13N5O3
  MOLSOFT 07311914272D

 23 25  0  0  0  0  0  0  0  0999 V2000
   -1.0120    2.8958    0.0000 C   0  0  0
   -2.3434    2.4632    0.0000 N   0  0  0
   -3.4761    3.2861    0.0000 C   0  0  0
   -3.4761    4.6861    0.0000 C   0  0  0
   -2.2636    5.3861    0.0000 C   0  0  0
   -1.0512    4.6861    0.0000 C   0  0  0
    0.1612    5.3861    0.0000 N   0  0  0
    1.3737    4.6861    0.0000 C   0  0  0
    2.5861    5.3861    0.0000 C   0  0  0
    3.7986    4.6861    0.0000 C   0  0  0
    3.7986    3.2861    0.0000 C   0  0  0
    2.5861    2.5861    0.0000 C   0  0  0
    1.3737    3.2861    0.0000 C   0  0  0
    0.1612    2.5861    0.0000 C   0  0  0
   -1.0512    3.2861    0.0000 N   0  0  0
   -2.2636    2.5861    0.0000 C   0  0  0
   -2.2636    1.1861    0.0000 C   0  0  0
   -1.0512    0.4861    0.0000 O   0  5  0
   -3.4761    0.4861    0.0000 O   0  0  0
    0.1612    1.1861    0.0000 O   0  0  0
   -4.6087    2.4632    0.0000 C   0  0  0
   -4.1761    1.1317    0.0000 N   0  0  0
   -2.7761    1.1317    0.0000 N   0  0  0
  1  2  1
  2  3  1
  2 23  1
  3  4  1
  3 21  2
  4  5  2
  5  6  1
  6  7  2
  6 15  1
  7  8  1
  8  9  2
  8 13  1
  9 10  1
 10 11  2
 11 12  1
 12 13  2
 13 14  1
 14 15  1
 14 20  2
 15 16  1
 16 17  1
 17 18  1
 17 19  2
 21 22  1
 22 23  2
M  ZZE   1 10,10,0,0,0,0,0,0;0,17,0,17,0,0,0,0,0,0,0
M  ZZE   2 10,10,0,0,0,0,0,0;0,3,0,3,0,0,0,0,0,0,0
M  ZZE   3 10,10,0,0,0,0,0,0;0,17,0,17,0,0,0,0,0,0,0
M  ZZE   4 10,10,0,0,0,0,0,0;0,17,0,17,0,0,0,0,0,0,0
M  ZZE   5 10,10,0,0,0,0,0,0;0,17,0,17,0,0,0,0,0,0,0
M  ZZE   6 10,10,0,0,0,0,0,0;0,17,0,17,0,0,0,0,0,0,0
M  ZZE   7 10,10,0,0,0,0,0,0;0,3,0,3,0,0,0,0,0,0,0
M  ZZE   8 10,10,0,0,0,0,0,0;0,17,0,17,0,0,0,0,0,0,0
M  ZZE   9 10,10,0,0,0,0,0,0;0,17,0,17,0,0,0,0,0,0,0
M  ZZE  10 10,10,0,0,0,0,0,0;0,17,0,17,0,0,0,0,0,0,0
M  ZZE  11 10,10,0,0,0,0,0,0;0,17,0,17,0,0,0,0,0,0,0
M  ZZE  12 10,10,0,0,0,0,0,0;0,17,0,17,0,0,0,0,0,0,0
M  ZZE  13 10,10,0,0,0,0,0,0;0,17,0,17,0,0,0,0,0,0,0
M  ZZE  14 10,10,0,0,0,0,0,0;0,17,0,17,0,0,0,0,0,0,0
M  ZZE  15 10,10,0,0,0,0,0,0;0,3,0,3,0,0,0,0,0,0,0
M  ZZE  16 10,10,0,0,0,0,0,0;0,17,0,17,0,0,0,0,0,0,0
M  ZZE  17 10,10,0,0,0,0,0,0;0,17,0,17,0,0,0,0,0,0,0
M  ZZE  18 10,10,0,0,0,0,0,0;0,4,0,4,0,0,0,0,0,0,0
M  ZZE  19 10,10,0,0,0,0,0,0;0,4,0,4,0,0,0,0,0,0,0
M  ZZE  20 10,10,0,0,0,0,0,0;0,4,0,4,0,0,0,0,0,0,0
M  ZZE  21 10,10,0,0,0,0,0,0;0,17,0,17,0,0,0,0,0,0,0
M  ZZE  22 10,10,0,0,0,0,0,0;0,3,0,3,0,0,0,0,0,0,0
M  ZZE  23 10,10,0,0,0,0,0,0;0,3,0,3,0,0,0,0,0,0,0
M  CHG  1  18  -1
M  END
> <L>
0

> <N>
117

> <Order>
 

> <idnumber>
Z1436757513

> <smiles>
Cn1c(C=CC2=Nc3ccccc3C(N2CC(O)=O)=O)cnn1

> <r_i_docking_score>
-5.183013

> <s_m_entry_id>
587

> <s_m_entry_name>
glide-dock_SP_13.5

> <CO>
21

> <ord>
54

> <r_pdb_PDB_CRYST1_alpha>
0

> <cl>
2

> <chiral_flag>
0

> <r_pdb_PDB_CRYST1_beta>
0

> <version>
0

> <r_pdb_PDB_CRYST1_gamma>
0

> <i_pdb_PDB_CRYST1_z>
0

> <i_lp_mmshare_version>
45011

> <s_epik_input>
bjFuW2NIXWMobjFbQ0gzXSkvW0NIXT1bQ0hdXGMobjIpbihbQ0gyXUMoPU8pW09IXSljKD1PKWMoYzIzKVtjSF1bY0hdW2NIXVtjSF0z

> <s_epik_cmdline>
J2VwaWtfcHl0aG9uJywgJy1waCcsICc3LjMnLCAnLXRuJywgJzgnLCAnLW1hJywgJzIwMCcsICctaW1hZScsICc8aW5maWxlLm1hZT4nLCAnLW9tYWUnLCAnPG91dGZpbGUubWFlPic=

> <r_epik_Ionization_Penalty>
  0.0006

> <s_m_Source_File>
ligprep_enaminecpd5_2.sdf

> <i_m_Source_File_Index>
54

> <r_epik_Ionization_Penalty_Charging>
  0.0006

> <r_epik_Ionization_Penalty_Neutral>
  0.0000

> <s_ppw_entry_id_backup>
0

> <r_epik_State_Penalty>
  0.0004

> <r_epik_Charging_Adjusted_Penalty>
0.00103

> <b_ppw_prepared>
0

> <i_epik_Tot_Q>
-1

> <b_ppw_assigned_bond_orders>
0

> <i_epik_Tot_abs_Q>
1

> <s_lp_Force_Field>
OPLS3e

> <b_ppw_added_hydrogens>
0

> <b_ppw_treated_metals>
0

> <r_lp_Energy>
33.20876

> <b_ppw_created_disulfur>
0

> <b_lp_Chiralities_Consistent>
1

> <s_lp_Variant>
C15H13N5O3-2

> <b_ppw_deleted_far_waters>
0

> <s_m_job_name>
glide-dock_SP_13

> <r_lp_tautomer_probability>
0

> <b_ppw_ran_protassign>
0

> <i_f3d_flags>
0

> <s_i_glide_gridfile>
glide-grid_2

> <i_i_glide_lignum>
112

> <i_i_glide_rotatable_bonds>
4

> <r_i_glide_ligand_efficiency>
-0.225348

> <r_i_glide_ligand_efficiency_sa>
-0.640861

> <r_i_glide_ligand_efficiency_ln>
-1.253299

> <r_i_glide_gscore>
-5.183413

> <r_i_glide_lipo>
-0.695386

> <r_i_target_temperature>
0

> <r_i_glide_hbond>
-0.364667

> <b_ppw_ran_impref>
0

> <r_i_glide_metal>
0

> <r_i_glide_rewards>
-2.331837

> <i_glide_grid_version>
0

> <r_i_glide_evdw>
-26.592548

> <r_i_glide_ecoul>
-8.211251

> <r_i_glide_erotb>
0.769792

> <r_glide_gridbox_xrange>
0

> <r_i_glide_esite>
0.

> <r_glide_gridbox_yrange>
0

> <r_i_glide_emodel>
-47.679612

> <r_glide_gridbox_zrange>
0

> <r_i_glide_energy>
-34.8038

> <r_i_glide_einternal>
2.625679

> <r_glide_gridbox_ligxrange>
0

> <r_glide_gridbox_ligyrange>
0

> <i_i_glide_confnum>
1

> <i_i_glide_posenum>
108

> <r_glide_gridbox_ligzrange>
0

> <r_i_glide_eff_state_penalty>
0.0004

> <b_glide_receptor>
0

> <r_i_glide_rmsd>
0.851999

> <b_glide_conssat_A_ARG_221_H_hbond_>
1

> <b_glide_conssat_A_ARG_221_HE_hbond_>
1

> <b_glide_conssat_A_TYR_261_HH_hbond_>
0

> <s_m_subgroup_title>
glide-dock_SP_13_pv1

> <s_m_subgroupid>
glide-dock_SP_13_pv1

> <b_m_subgroup_collapsed>
0

> <O>
5

> <CO_1>
47

> <ord_1>
41

> <cl_1>
11

> <ord_2>
1

> <cl_2>
1

> <CO_2>
1

> <cl_3>
1

$$$$
C19H18N4O4S
  MOLSOFT 07311914272D

 28 30  0  0  0  0  0  0  0  0999 V2000
    5.3879    3.8967    0.0000 C   0  0  0
    4.8185    2.6177    0.0000 C   0  0  0
    5.6414    1.4851    0.0000 N   0  0  0
    7.0337    1.6314    0.0000 C   0  0  0
    7.8566    0.4988    0.0000 C   0  0  0
    7.6032    2.9104    0.0000 O   0  0  0
    5.0720    0.2061    0.0000 C   0  0  0
    3.7026   -0.0849    0.0000 N   0  0  0
    3.5562   -1.4773    0.0000 C   0  0  0
    2.3438   -2.1773    0.0000 C   0  0  0
    1.1314   -1.4773    0.0000 C   0  0  0
    1.1314   -0.0773    0.0000 C   0  0  0
   -0.0811    0.6227    0.0000 N   0  0  0
   -0.0811    2.0227    0.0000 C   0  0  0
   -1.2935    2.7227    0.0000 C   0  0  0
   -1.2935    4.1227    0.0000 C   0  0  0
   -0.0811    4.8227    0.0000 C   0  0  0
    1.1314    4.1227    0.0000 C   0  0  0
    1.1314    2.7227    0.0000 C   0  0  0
    2.3438    2.0227    0.0000 C   0  0  0
    2.3438    0.6227    0.0000 N   0  0  0
    3.5562   -0.0773    0.0000 C   0  0  0
    4.7687    0.6227    0.0000 C   0  0  0
    4.7687    2.0227    0.0000 O   0  5  0
    5.9811   -0.0773    0.0000 O   0  0  0
    3.5562    2.7227    0.0000 O   0  0  0
    4.8352   -2.0467    0.0000 C   0  0  0
    5.7720   -1.0063    0.0000 S   0  0  0
  1  2  1
  2  3  1
  3  4  1
  3  7  1
  4  5  1
  4  6  2
  7  8  2
  7 28  1
  8  9  1
  9 10  1
  9 27  2
 10 11  2
 11 12  1
 12 13  2
 12 21  1
 13 14  1
 14 15  2
 14 19  1
 15 16  1
 16 17  2
 17 18  1
 18 19  2
 19 20  1
 20 21  1
 20 26  2
 21 22  1
 22 23  1
 23 24  1
 23 25  2
 27 28  1
M  ZZE   1 10,10,0,0,0,0,0,0;0,17,0,17,0,0,0,0,0,0,0
M  ZZE   2 10,10,0,0,0,0,0,0;0,17,0,17,0,0,0,0,0,0,0
M  ZZE   3 10,10,0,0,0,0,0,0;0,3,0,3,0,0,0,0,0,0,0
M  ZZE   4 10,10,0,0,0,0,0,0;0,17,0,17,0,0,0,0,0,0,0
M  ZZE   5 10,10,0,0,0,0,0,0;0,17,0,17,0,0,0,0,0,0,0
M  ZZE   6 10,10,0,0,0,0,0,0;0,4,0,4,0,0,0,0,0,0,0
M  ZZE   7 10,10,0,0,0,0,0,0;0,17,0,17,0,0,0,0,0,0,0
M  ZZE   8 10,10,0,0,0,0,0,0;0,3,0,3,0,0,0,0,0,0,0
M  ZZE   9 10,10,0,0,0,0,0,0;0,17,0,17,0,0,0,0,0,0,0
M  ZZE  10 10,10,0,0,0,0,0,0;0,17,0,17,0,0,0,0,0,0,0
M  ZZE  11 10,10,0,0,0,0,0,0;0,17,0,17,0,0,0,0,0,0,0
M  ZZE  12 10,10,0,0,0,0,0,0;0,17,0,17,0,0,0,0,0,0,0
M  ZZE  13 10,10,0,0,0,0,0,0;0,3,0,3,0,0,0,0,0,0,0
M  ZZE  14 10,10,0,0,0,0,0,0;0,17,0,17,0,0,0,0,0,0,0
M  ZZE  15 10,10,0,0,0,0,0,0;0,17,0,17,0,0,0,0,0,0,0
M  ZZE  16 10,10,0,0,0,0,0,0;0,17,0,17,0,0,0,0,0,0,0
M  ZZE  17 10,10,0,0,0,0,0,0;0,17,0,17,0,0,0,0,0,0,0
M  ZZE  18 10,10,0,0,0,0,0,0;0,17,0,17,0,0,0,0,0,0,0
M  ZZE  19 10,10,0,0,0,0,0,0;0,17,0,17,0,0,0,0,0,0,0
M  ZZE  20 10,10,0,0,0,0,0,0;0,17,0,17,0,0,0,0,0,0,0
M  ZZE  21 10,10,0,0,0,0,0,0;0,3,0,3,0,0,0,0,0,0,0
M  ZZE  22 10,10,0,0,0,0,0,0;0,17,0,17,0,0,0,0,0,0,0
M  ZZE  23 10,10,0,0,0,0,0,0;0,17,0,17,0,0,0,0,0,0,0
M  ZZE  24 10,10,0,0,0,0,0,0;0,4,0,4,0,0,0,0,0,0,0
M  ZZE  25 10,10,0,0,0,0,0,0;0,4,0,4,0,0,0,0,0,0,0
M  ZZE  26 10,10,0,0,0,0,0,0;0,4,0,4,0,0,0,0,0,0,0
M  ZZE  27 10,10,0,0,0,0,0,0;0,17,0,17,0,0,0,0,0,0,0
M  ZZE  28 10,10,0,0,0,0,0,0;0,5,0,5,0,0,0,0,0,0,0
M  CHG  1  24  -1
M  END
> <L>
0

> <N>
57

> <Order>
 

> <idnumber>
Z1436758310

> <smiles>
CCN(C(C)=O)c1nc(C=CC2=Nc3ccccc3C(N2CC(O)=O)=O)cs1

> <r_i_docking_score>
-4.612489

> <s_m_entry_id>
647

> <s_m_entry_name>
glide-dock_SP_13.65

> <CO>
70

> <ord>
61

> <r_pdb_PDB_CRYST1_alpha>
0

> <cl>
5

> <chiral_flag>
0

> <r_pdb_PDB_CRYST1_beta>
0

> <version>
0

> <r_pdb_PDB_CRYST1_gamma>
0

> <i_pdb_PDB_CRYST1_z>
0

> <i_lp_mmshare_version>
45011

> <s_epik_input>
W0NIM11bQ0gyXU4oQyg9TylbQ0gzXSljMW5jKFtjSF1zMSkvW0NIXT1bQ0hdXGMobjIpbihbQ0gyXUMoPU8pW09IXSljKD1PKWMoYzIzKVtjSF1bY0hdW2NIXVtjSF0z

> <s_epik_cmdline>
J2VwaWtfcHl0aG9uJywgJy1waCcsICc3LjMnLCAnLXRuJywgJzgnLCAnLW1hJywgJzIwMCcsICctaW1hZScsICc8aW5maWxlLm1hZT4nLCAnLW9tYWUnLCAnPG91dGZpbGUubWFlPic=

> <r_epik_Ionization_Penalty>
  0.0006

> <s_m_Source_File>
ligprep_enaminecpd5_2.sdf

> <i_m_Source_File_Index>
61

> <r_epik_Ionization_Penalty_Charging>
  0.0006

> <r_epik_Ionization_Penalty_Neutral>
  0.0000

> <s_ppw_entry_id_backup>
0

> <r_epik_State_Penalty>
  0.0004

> <r_epik_Charging_Adjusted_Penalty>
0.00103

> <b_ppw_prepared>
0

> <i_epik_Tot_Q>
-1

> <b_ppw_assigned_bond_orders>
0

> <i_epik_Tot_abs_Q>
1

> <s_lp_Force_Field>
OPLS3e

> <b_ppw_added_hydrogens>
0

> <b_ppw_treated_metals>
0

> <r_lp_Energy>
50.184108

> <b_ppw_created_disulfur>
0

> <b_lp_Chiralities_Consistent>
1

> <s_lp_Variant>
C19H18N4O4S-2

> <b_ppw_deleted_far_waters>
0

> <s_m_job_name>
glide-dock_SP_13

> <r_lp_tautomer_probability>
0

> <b_ppw_ran_protassign>
0

> <i_f3d_flags>
0

> <s_i_glide_gridfile>
glide-grid_2

> <i_i_glide_lignum>
126

> <i_i_glide_rotatable_bonds>
7

> <r_i_glide_ligand_efficiency>
-0.164732

> <r_i_glide_ligand_efficiency_sa>
-0.500223

> <r_i_glide_ligand_efficiency_ln>
-1.064698

> <r_i_glide_gscore>
-4.612889

> <r_i_glide_lipo>
-0.694471

> <r_i_target_temperature>
0

> <r_i_glide_hbond>
-0.464174

> <b_ppw_ran_impref>
0

> <r_i_glide_metal>
0

> <r_i_glide_rewards>
-1.52806

> <i_glide_grid_version>
0

> <r_i_glide_evdw>
-24.339973

> <r_i_glide_ecoul>
-8.85869

> <r_i_glide_erotb>
0.619649

> <r_glide_gridbox_xrange>
0

> <r_i_glide_esite>
-0.00003

> <r_glide_gridbox_yrange>
0

> <r_i_glide_emodel>
-44.808021

> <r_glide_gridbox_zrange>
0

> <r_i_glide_energy>
-33.198664

> <r_i_glide_einternal>
4.681243

> <r_glide_gridbox_ligxrange>
0

> <r_glide_gridbox_ligyrange>
0

> <i_i_glide_confnum>
12

> <i_i_glide_posenum>
81

> <r_glide_gridbox_ligzrange>
0

> <r_i_glide_eff_state_penalty>
0.0004

> <b_glide_receptor>
0

> <r_i_glide_rmsd>
0.849433

> <b_glide_conssat_A_ARG_221_H_hbond_>
1

> <b_glide_conssat_A_ARG_221_HE_hbond_>
1

> <b_glide_conssat_A_TYR_261_HH_hbond_>
0

> <s_m_subgroup_title>
glide-dock_SP_13_pv1

> <s_m_subgroupid>
glide-dock_SP_13_pv1

> <b_m_subgroup_collapsed>
0

> <O>
65

> <CO_1>
31

> <ord_1>
46

> <cl_1>
13

> <ord_2>
2

> <cl_2>
2

> <CO_2>
3

> <cl_3>
2

$$$$
C17H15N3O5S
  MOLSOFT 07311914272D

 26 28  0  0  0  0  0  0  0  0999 V2000
   -3.5000   -1.2124    0.0000 C   0  0  0
   -2.1000   -1.2124    0.0000 C   0  0  0
   -1.4000   -0.0000    0.0000 C   0  0  0
   -0.0000   -0.0000    0.0000 C   0  0  0
    0.7000    1.2124    0.0000 C   0  0  0
    2.1000    1.2124    0.0000 C   0  0  0
    2.8000   -0.0000    0.0000 C   0  0  0
    2.1000   -1.2124    0.0000 C   0  0  0
    0.7000   -1.2124    0.0000 C   0  0  0
    2.8000   -2.4249    0.0000 N   0  0  0
    4.2000   -2.4249    0.0000 S   0  0  0
    5.6000   -2.4249    0.0000 C   0  0  0
    6.4229   -3.5575    0.0000 C   0  0  0
    7.7544   -3.1249    0.0000 N   0  0  0
    7.7544   -1.7249    0.0000 C   0  0  0
    6.4229   -1.2922    0.0000 C   0  0  0
    6.1318    0.0772    0.0000 C   0  0  0
    7.1722    1.0139    0.0000 C   0  0  0
    8.5037    0.5813    0.0000 C   0  0  0
    8.7948   -0.7881    0.0000 N   0  0  0
    4.2000   -3.8249    0.0000 O   0  0  0
    4.2000   -1.0249    0.0000 O   0  0  0
   -2.1000    1.2124    0.0000 O   0  0  0
   -4.2000   -2.4249    0.0000 C   0  0  0
   -3.5000   -3.6373    0.0000 O   0  5  0
   -5.6000   -2.4249    0.0000 O   0  0  0
  1  2  1
  1 24  1
  2  3  1
  3  4  1
  3 23  2
  4  5  1
  4  9  2
  5  6  2
  6  7  1
  7  8  2
  8  9  1
  8 10  1
 10 11  1
 11 12  1
 11 21  2
 11 22  2
 12 13  2
 12 16  1
 13 14  1
 14 15  1
 15 16  2
 15 20  1
 16 17  1
 17 18  2
 18 19  1
 19 20  2
 24 25  1
 24 26  2
M  ZZE   1 10,10,0,0,0,0,0,0;0,17,0,17,0,0,0,0,0,0,0
M  ZZE   2 10,10,0,0,0,0,0,0;0,17,0,17,0,0,0,0,0,0,0
M  ZZE   3 10,10,0,0,0,0,0,0;0,17,0,17,0,0,0,0,0,0,0
M  ZZE   4 10,10,0,0,0,0,0,0;0,17,0,17,0,0,0,0,0,0,0
M  ZZE   5 10,10,0,0,0,0,0,0;0,17,0,17,0,0,0,0,0,0,0
M  ZZE   6 10,10,0,0,0,0,0,0;0,17,0,17,0,0,0,0,0,0,0
M  ZZE   7 10,10,0,0,0,0,0,0;0,17,0,17,0,0,0,0,0,0,0
M  ZZE   8 10,10,0,0,0,0,0,0;0,17,0,17,0,0,0,0,0,0,0
M  ZZE   9 10,10,0,0,0,0,0,0;0,17,0,17,0,0,0,0,0,0,0
M  ZZE  10 10,10,0,0,0,0,0,0;0,3,0,3,0,0,0,0,0,0,0
M  ZZE  11 10,10,0,0,0,0,0,0;0,5,0,5,0,0,0,0,0,0,0
M  ZZE  12 10,10,0,0,0,0,0,0;0,17,0,17,0,0,0,0,0,0,0
M  ZZE  13 10,10,0,0,0,0,0,0;0,17,0,17,0,0,0,0,0,0,0
M  ZZE  14 10,10,0,0,0,0,0,0;0,3,0,3,0,0,0,0,0,0,0
M  ZZE  15 10,10,0,0,0,0,0,0;0,17,0,17,0,0,0,0,0,0,0
M  ZZE  16 10,10,0,0,0,0,0,0;0,17,0,17,0,0,0,0,0,0,0
M  ZZE  17 10,10,0,0,0,0,0,0;0,17,0,17,0,0,0,0,0,0,0
M  ZZE  18 10,10,0,0,0,0,0,0;0,17,0,17,0,0,0,0,0,0,0
M  ZZE  19 10,10,0,0,0,0,0,0;0,17,0,17,0,0,0,0,0,0,0
M  ZZE  20 10,10,0,0,0,0,0,0;0,3,0,3,0,0,0,0,0,0,0
M  ZZE  21 10,10,0,0,0,0,0,0;0,4,0,4,0,0,0,0,0,0,0
M  ZZE  22 10,10,0,0,0,0,0,0;0,4,0,4,0,0,0,0,0,0,0
M  ZZE  23 10,10,0,0,0,0,0,0;0,4,0,4,0,0,0,0,0,0,0
M  ZZE  24 10,10,0,0,0,0,0,0;0,17,0,17,0,0,0,0,0,0,0
M  ZZE  25 10,10,0,0,0,0,0,0;0,4,0,4,0,0,0,0,0,0,0
M  ZZE  26 10,10,0,0,0,0,0,0;0,4,0,4,0,0,0,0,0,0,0
M  CHG  1  25  -1
M  END
> <L>
0

> <N>
0

> <idnumber>
Z1373577255

> <smiles>
C(CC(c1cccc(c1)NS(c1c[nH]c2c1cccn2)(=O)=O)=O)C(O)=O

> <r_i_docking_score>
-5.231229

> <s_m_entry_id>
0

> <CO>
0

> <ord>
0

> <r_pdb_PDB_CRYST1_alpha>
0

> <cl>
0

> <chiral_flag>
0

> <r_pdb_PDB_CRYST1_beta>
0

> <version>
0

> <r_pdb_PDB_CRYST1_gamma>
0

> <i_pdb_PDB_CRYST1_z>
0

> <i_lp_mmshare_version>
0

> <i_m_Source_File_Index>
0

> <s_ppw_entry_id_backup>
0

> <b_ppw_prepared>
0

> <i_epik_Tot_Q>
0

> <b_ppw_assigned_bond_orders>
0

> <i_epik_Tot_abs_Q>
0

> <b_ppw_added_hydrogens>
0

> <b_ppw_treated_metals>
0

> <b_ppw_created_disulfur>
0

> <b_lp_Chiralities_Consistent>
0

> <b_ppw_deleted_far_waters>
0

> <r_lp_tautomer_probability>
0

> <b_ppw_ran_protassign>
0

> <i_f3d_flags>
0

> <i_i_glide_lignum>
0

> <i_i_glide_rotatable_bonds>
0

> <r_i_target_temperature>
0

> <b_ppw_ran_impref>
0

> <r_i_glide_metal>
0

> <i_glide_grid_version>
0

> <r_glide_gridbox_xrange>
0

> <r_glide_gridbox_yrange>
0

> <r_glide_gridbox_zrange>
0

> <r_glide_gridbox_ligxrange>
0

> <r_glide_gridbox_ligyrange>
0

> <i_i_glide_confnum>
0

> <i_i_glide_posenum>
0

> <r_glide_gridbox_ligzrange>
0

> <b_glide_receptor>
0

> <b_glide_conssat_A_ARG_221_H_hbond_>
0

> <b_glide_conssat_A_ARG_221_HE_hbond_>
0

> <b_glide_conssat_A_TYR_261_HH_hbond_>
0

> <b_m_subgroup_collapsed>
0

> <O>
70

> <CO_1>
0

> <ord_1>
0

> <cl_1>
0

> <ord_2>
0

> <cl_2>
0

> <CO_2>
0

> <cl_3>
0

$$$$
C18H17NO7S
  MOLSOFT 07311914272D

 27 28  0  0  0  0  0  0  0  0999 V2000
    5.3391   -2.3317    0.0000 C   0  0  0
    5.3391   -3.7317    0.0000 C   0  0  0
    6.5515   -4.4317    0.0000 C   0  0  0
    6.5515   -5.8317    0.0000 C   0  0  0
    5.3391   -6.5317    0.0000 C   0  0  0
    4.1267   -5.8317    0.0000 C   0  0  0
    4.1267   -4.4317    0.0000 C   0  0  0
    2.9142   -3.7317    0.0000 S   0  0  0
    1.7018   -3.0317    0.0000 N   0  0  0
    0.4894   -3.7317    0.0000 C   0  0  0
    0.4894   -5.1317    0.0000 C   0  0  0
   -0.7231   -5.8317    0.0000 C   0  0  0
   -1.9355   -5.1317    0.0000 C   0  0  0
   -1.9355   -3.7317    0.0000 C   0  0  0
   -0.7231   -3.0317    0.0000 C   0  0  0
   -3.1479   -3.0317    0.0000 C   0  0  0
   -4.3604   -3.7317    0.0000 C   0  0  0
   -5.5728   -3.0317    0.0000 C   0  0  0
   -6.7852   -3.7317    0.0000 C   0  0  0
   -6.7852   -5.1317    0.0000 O   0  5  0
   -7.9977   -3.0317    0.0000 O   0  0  0
   -3.1479   -1.6317    0.0000 O   0  0  0
    2.2142   -4.9441    0.0000 O   0  0  0
    3.6142   -2.5193    0.0000 O   0  0  0
    5.3391   -7.9317    0.0000 C   0  0  0
    4.1267   -8.6317    0.0000 O   0  5  0
    6.5515   -8.6317    0.0000 O   0  0  0
  1  2  1
  2  3  2
  2  7  1
  3  4  1
  4  5  2
  5  6  1
  5 25  1
  6  7  2
  7  8  1
  8  9  1
  8 23  2
  8 24  2
  9 10  1
 10 11  1
 10 15  2
 11 12  2
 12 13  1
 13 14  2
 14 15  1
 14 16  1
 16 17  1
 16 22  2
 17 18  1
 18 19  1
 19 20  1
 19 21  2
 25 26  1
 25 27  2
M  ZZE   1 10,10,0,0,0,0,0,0;0,17,0,17,0,0,0,0,0,0,0
M  ZZE   2 10,10,0,0,0,0,0,0;0,17,0,17,0,0,0,0,0,0,0
M  ZZE   3 10,10,0,0,0,0,0,0;0,17,0,17,0,0,0,0,0,0,0
M  ZZE   4 10,10,0,0,0,0,0,0;0,17,0,17,0,0,0,0,0,0,0
M  ZZE   5 10,10,0,0,0,0,0,0;0,17,0,17,0,0,0,0,0,0,0
M  ZZE   6 10,10,0,0,0,0,0,0;0,17,0,17,0,0,0,0,0,0,0
M  ZZE   7 10,10,0,0,0,0,0,0;0,17,0,17,0,0,0,0,0,0,0
M  ZZE   8 10,10,0,0,0,0,0,0;0,5,0,5,0,0,0,0,0,0,0
M  ZZE   9 10,10,0,0,0,0,0,0;0,3,0,3,0,0,0,0,0,0,0
M  ZZE  10 10,10,0,0,0,0,0,0;0,17,0,17,0,0,0,0,0,0,0
M  ZZE  11 10,10,0,0,0,0,0,0;0,17,0,17,0,0,0,0,0,0,0
M  ZZE  12 10,10,0,0,0,0,0,0;0,17,0,17,0,0,0,0,0,0,0
M  ZZE  13 10,10,0,0,0,0,0,0;0,17,0,17,0,0,0,0,0,0,0
M  ZZE  14 10,10,0,0,0,0,0,0;0,17,0,17,0,0,0,0,0,0,0
M  ZZE  15 10,10,0,0,0,0,0,0;0,17,0,17,0,0,0,0,0,0,0
M  ZZE  16 10,10,0,0,0,0,0,0;0,17,0,17,0,0,0,0,0,0,0
M  ZZE  17 10,10,0,0,0,0,0,0;0,17,0,17,0,0,0,0,0,0,0
M  ZZE  18 10,10,0,0,0,0,0,0;0,17,0,17,0,0,0,0,0,0,0
M  ZZE  19 10,10,0,0,0,0,0,0;0,17,0,17,0,0,0,0,0,0,0
M  ZZE  20 10,10,0,0,0,0,0,0;0,4,0,4,0,0,0,0,0,0,0
M  ZZE  21 10,10,0,0,0,0,0,0;0,4,0,4,0,0,0,0,0,0,0
M  ZZE  22 10,10,0,0,0,0,0,0;0,4,0,4,0,0,0,0,0,0,0
M  ZZE  23 10,10,0,0,0,0,0,0;0,4,0,4,0,0,0,0,0,0,0
M  ZZE  24 10,10,0,0,0,0,0,0;0,4,0,4,0,0,0,0,0,0,0
M  ZZE  25 10,10,0,0,0,0,0,0;0,17,0,17,0,0,0,0,0,0,0
M  ZZE  26 10,10,0,0,0,0,0,0;0,4,0,4,0,0,0,0,0,0,0
M  ZZE  27 10,10,0,0,0,0,0,0;0,4,0,4,0,0,0,0,0,0,0
M  CHG  2  20  -1  26  -1
M  END
> <L>
0

> <N>
0

> <idnumber>
Z1413959119

> <smiles>
Cc1ccc(cc1S(Nc1cccc(c1)C(CCC(O)=O)=O)(=O)=O)C(O)=O

> <r_i_docking_score>
-5.243615

> <s_m_entry_id>
0

> <CO>
0

> <ord>
0

> <r_pdb_PDB_CRYST1_alpha>
0

> <cl>
0

> <chiral_flag>
0

> <r_pdb_PDB_CRYST1_beta>
0

> <version>
0

> <r_pdb_PDB_CRYST1_gamma>
0

> <i_pdb_PDB_CRYST1_z>
0

> <i_lp_mmshare_version>
0

> <i_m_Source_File_Index>
0

> <s_ppw_entry_id_backup>
0

> <b_ppw_prepared>
0

> <i_epik_Tot_Q>
0

> <b_ppw_assigned_bond_orders>
0

> <i_epik_Tot_abs_Q>
0

> <b_ppw_added_hydrogens>
0

> <b_ppw_treated_metals>
0

> <b_ppw_created_disulfur>
0

> <b_lp_Chiralities_Consistent>
0

> <b_ppw_deleted_far_waters>
0

> <r_lp_tautomer_probability>
0

> <b_ppw_ran_protassign>
0

> <i_f3d_flags>
0

> <i_i_glide_lignum>
0

> <i_i_glide_rotatable_bonds>
0

> <r_i_target_temperature>
0

> <b_ppw_ran_impref>
0

> <r_i_glide_metal>
0

> <i_glide_grid_version>
0

> <r_glide_gridbox_xrange>
0

> <r_glide_gridbox_yrange>
0

> <r_glide_gridbox_zrange>
0

> <r_glide_gridbox_ligxrange>
0

> <r_glide_gridbox_ligyrange>
0

> <i_i_glide_confnum>
0

> <i_i_glide_posenum>
0

> <r_glide_gridbox_ligzrange>
0

> <b_glide_receptor>
0

> <b_glide_conssat_A_ARG_221_H_hbond_>
0

> <b_glide_conssat_A_ARG_221_HE_hbond_>
0

> <b_glide_conssat_A_TYR_261_HH_hbond_>
0

> <b_m_subgroup_collapsed>
0

> <O>
71

> <CO_1>
0

> <ord_1>
0

> <cl_1>
0

> <ord_2>
0

> <cl_2>
0

> <CO_2>
0

> <cl_3>
0

$$$$
C20H20O4
  MOLSOFT 07311914272D

 24 26  0  0  1  0  0  0  0  0999 V2000
    6.1560   -2.0749    0.0000 C   0  0  0
    4.9435   -1.3749    0.0000 C   0  0  1
    3.7311   -2.0749    0.0000 C   0  0  0
    3.7311   -3.4749    0.0000 C   0  0  0
    2.5187   -4.1749    0.0000 C   0  0  0
    2.5187   -5.5749    0.0000 C   0  0  0
    1.3062   -6.2749    0.0000 C   0  0  0
    0.0938   -5.5749    0.0000 C   0  0  0
    0.0938   -4.1749    0.0000 C   0  0  0
    1.3062   -3.4749    0.0000 C   0  0  0
   -1.1187   -3.4749    0.0000 C   0  0  0
   -2.3311   -4.1749    0.0000 C   0  0  0
   -3.5435   -3.4749    0.0000 C   0  0  0
   -3.5435   -2.0749    0.0000 C   0  0  0
   -2.3311   -1.3749    0.0000 C   0  0  0
   -2.3311    0.0251    0.0000 C   0  0  0
   -3.5435    0.7251    0.0000 C   0  0  0
   -4.7560    0.0251    0.0000 C   0  0  0
   -4.7560   -1.3749    0.0000 O   0  0  0
   -1.1187   -2.0749    0.0000 C   0  0  0
    4.9435   -4.1749    0.0000 O   0  0  0
    4.9435    0.0251    0.0000 C   0  0  0
    3.7311    0.7251    0.0000 O   0  5  0
    6.1560    0.7251    0.0000 O   0  0  0
  2  1  1  1
  2  3  1
  2 22  1
  3  4  1
  4  5  1
  4 21  2
  5  6  1
  5 10  2
  6  7  2
  7  8  1
  8  9  2
  9 10  1
  9 11  1
 11 12  1
 11 20  2
 12 13  2
 13 14  1
 14 15  2
 14 19  1
 15 16  1
 15 20  1
 16 17  1
 17 18  1
 18 19  1
 22 23  1
 22 24  2
M  ZZE   1 10,10,0,0,0,0,0,0;0,17,0,17,0,0,0,0,0,0,0
M  ZZE   2 10,10,0,0,0,0,0,0;0,17,0,17,0,0,0,0,0,0,0
M  ZZE   3 10,10,0,0,0,0,0,0;0,17,0,17,0,0,0,0,0,0,0
M  ZZE   4 10,10,0,0,0,0,0,0;0,17,0,17,0,0,0,0,0,0,0
M  ZZE   5 10,10,0,0,0,0,0,0;0,17,0,17,0,0,0,0,0,0,0
M  ZZE   6 10,10,0,0,0,0,0,0;0,17,0,17,0,0,0,0,0,0,0
M  ZZE   7 10,10,0,0,0,0,0,0;0,17,0,17,0,0,0,0,0,0,0
M  ZZE   8 10,10,0,0,0,0,0,0;0,17,0,17,0,0,0,0,0,0,0
M  ZZE   9 10,10,0,0,0,0,0,0;0,17,0,17,0,0,0,0,0,0,0
M  ZZE  10 10,10,0,0,0,0,0,0;0,17,0,17,0,0,0,0,0,0,0
M  ZZE  11 10,10,0,0,0,0,0,0;0,17,0,17,0,0,0,0,0,0,0
M  ZZE  12 10,10,0,0,0,0,0,0;0,17,0,17,0,0,0,0,0,0,0
M  ZZE  13 10,10,0,0,0,0,0,0;0,17,0,17,0,0,0,0,0,0,0
M  ZZE  14 10,10,0,0,0,0,0,0;0,17,0,17,0,0,0,0,0,0,0
M  ZZE  15 10,10,0,0,0,0,0,0;0,17,0,17,0,0,0,0,0,0,0
M  ZZE  16 10,10,0,0,0,0,0,0;0,17,0,17,0,0,0,0,0,0,0
M  ZZE  17 10,10,0,0,0,0,0,0;0,17,0,17,0,0,0,0,0,0,0
M  ZZE  18 10,10,0,0,0,0,0,0;0,17,0,17,0,0,0,0,0,0,0
M  ZZE  19 10,10,0,0,0,0,0,0;0,4,0,4,0,0,0,0,0,0,0
M  ZZE  20 10,10,0,0,0,0,0,0;0,17,0,17,0,0,0,0,0,0,0
M  ZZE  21 10,10,0,0,0,0,0,0;0,4,0,4,0,0,0,0,0,0,0
M  ZZE  22 10,10,0,0,0,0,0,0;0,17,0,17,0,0,0,0,0,0,0
M  ZZE  23 10,10,0,0,0,0,0,0;0,4,0,4,0,0,0,0,0,0,0
M  ZZE  24 10,10,0,0,0,0,0,0;0,4,0,4,0,0,0,0,0,0,0
M  CHG  1  23  -1
M  END
> <L>
0

> <N>
0

> <idnumber>
Z2581564325

> <smiles>
CC(CC(c1cccc(c1)c1ccc2c(CCCO2)c1)=O)C(O)=O

> <r_i_docking_score>
-5.284075

> <s_m_entry_id>
0

> <CO>
0

> <ord>
0

> <r_pdb_PDB_CRYST1_alpha>
0

> <cl>
0

> <chiral_flag>
0

> <r_pdb_PDB_CRYST1_beta>
0

> <version>
0

> <r_pdb_PDB_CRYST1_gamma>
0

> <i_pdb_PDB_CRYST1_z>
0

> <i_lp_mmshare_version>
0

> <i_m_Source_File_Index>
0

> <s_ppw_entry_id_backup>
0

> <b_ppw_prepared>
0

> <i_epik_Tot_Q>
0

> <b_ppw_assigned_bond_orders>
0

> <i_epik_Tot_abs_Q>
0

> <b_ppw_added_hydrogens>
0

> <b_ppw_treated_metals>
0

> <b_ppw_created_disulfur>
0

> <b_lp_Chiralities_Consistent>
0

> <b_ppw_deleted_far_waters>
0

> <r_lp_tautomer_probability>
0

> <b_ppw_ran_protassign>
0

> <i_f3d_flags>
0

> <i_i_glide_lignum>
0

> <i_i_glide_rotatable_bonds>
0

> <r_i_target_temperature>
0

> <b_ppw_ran_impref>
0

> <r_i_glide_metal>
0

> <i_glide_grid_version>
0

> <r_glide_gridbox_xrange>
0

> <r_glide_gridbox_yrange>
0

> <r_glide_gridbox_zrange>
0

> <r_glide_gridbox_ligxrange>
0

> <r_glide_gridbox_ligyrange>
0

> <i_i_glide_confnum>
0

> <i_i_glide_posenum>
0

> <r_glide_gridbox_ligzrange>
0

> <b_glide_receptor>
0

> <b_glide_conssat_A_ARG_221_H_hbond_>
0

> <b_glide_conssat_A_ARG_221_HE_hbond_>
0

> <b_glide_conssat_A_TYR_261_HH_hbond_>
0

> <b_m_subgroup_collapsed>
0

> <O>
72

> <CO_1>
0

> <ord_1>
0

> <cl_1>
0

> <ord_2>
0

> <cl_2>
0

> <CO_2>
0

> <cl_3>
0

$$$$
C18H19NO7S2
  MOLSOFT 07311914272D

 28 29  0  0  0  0  0  0  0  0999 V2000
    0.0856    1.0555    0.0000 C   0  0  0
    0.0856   -0.3445    0.0000 N   0  0  0
    1.2981   -1.0445    0.0000 C   0  0  0
    2.5105   -0.3445    0.0000 C   0  0  0
    3.7229   -1.0445    0.0000 C   0  0  0
    3.7229   -2.4445    0.0000 C   0  0  0
    2.5105   -3.1445    0.0000 C   0  0  0
    1.2981   -2.4445    0.0000 C   0  0  0
    4.9354   -3.1445    0.0000 S   0  0  0
    5.6354   -1.9320    0.0000 C   0  0  0
    4.2354   -4.3569    0.0000 O   0  0  0
    6.1478   -3.8445    0.0000 O   0  0  0
   -1.1268   -1.0445    0.0000 S   0  0  0
   -2.3392   -1.7445    0.0000 C   0  0  0
   -2.3392   -3.1445    0.0000 C   0  0  0
   -3.5517   -3.8445    0.0000 C   0  0  0
   -4.7641   -3.1445    0.0000 C   0  0  0
   -4.7641   -1.7445    0.0000 C   0  0  0
   -3.5517   -1.0445    0.0000 C   0  0  0
   -5.9765   -3.8445    0.0000 C   0  0  0
   -5.9765   -5.2445    0.0000 C   0  0  0
   -7.1890   -5.9445    0.0000 C   0  0  0
   -7.1890   -7.3445    0.0000 C   0  0  0
   -5.9765   -8.0445    0.0000 O   0  5  0
   -8.4014   -8.0445    0.0000 O   0  0  0
   -7.1890   -3.1445    0.0000 O   0  0  0
   -1.8268    0.1679    0.0000 O   0  0  0
   -0.4268   -2.2569    0.0000 O   0  0  0
  1  2  1
  2  3  1
  2 13  1
  3  4  1
  3  8  2
  4  5  2
  5  6  1
  6  7  2
  6  9  1
  7  8  1
  9 10  1
  9 11  2
  9 12  2
 13 14  1
 13 27  2
 13 28  2
 14 15  1
 14 19  2
 15 16  2
 16 17  1
 17 18  2
 17 20  1
 18 19  1
 20 21  1
 20 26  2
 21 22  1
 22 23  1
 23 24  1
 23 25  2
M  ZZE   1 10,10,0,0,0,0,0,0;0,17,0,17,0,0,0,0,0,0,0
M  ZZE   2 10,10,0,0,0,0,0,0;0,3,0,3,0,0,0,0,0,0,0
M  ZZE   3 10,10,0,0,0,0,0,0;0,17,0,17,0,0,0,0,0,0,0
M  ZZE   4 10,10,0,0,0,0,0,0;0,17,0,17,0,0,0,0,0,0,0
M  ZZE   5 10,10,0,0,0,0,0,0;0,17,0,17,0,0,0,0,0,0,0
M  ZZE   6 10,10,0,0,0,0,0,0;0,17,0,17,0,0,0,0,0,0,0
M  ZZE   7 10,10,0,0,0,0,0,0;0,17,0,17,0,0,0,0,0,0,0
M  ZZE   8 10,10,0,0,0,0,0,0;0,17,0,17,0,0,0,0,0,0,0
M  ZZE   9 10,10,0,0,0,0,0,0;0,5,0,5,0,0,0,0,0,0,0
M  ZZE  10 10,10,0,0,0,0,0,0;0,17,0,17,0,0,0,0,0,0,0
M  ZZE  11 10,10,0,0,0,0,0,0;0,4,0,4,0,0,0,0,0,0,0
M  ZZE  12 10,10,0,0,0,0,0,0;0,4,0,4,0,0,0,0,0,0,0
M  ZZE  13 10,10,0,0,0,0,0,0;0,5,0,5,0,0,0,0,0,0,0
M  ZZE  14 10,10,0,0,0,0,0,0;0,17,0,17,0,0,0,0,0,0,0
M  ZZE  15 10,10,0,0,0,0,0,0;0,17,0,17,0,0,0,0,0,0,0
M  ZZE  16 10,10,0,0,0,0,0,0;0,17,0,17,0,0,0,0,0,0,0
M  ZZE  17 10,10,0,0,0,0,0,0;0,17,0,17,0,0,0,0,0,0,0
M  ZZE  18 10,10,0,0,0,0,0,0;0,17,0,17,0,0,0,0,0,0,0
M  ZZE  19 10,10,0,0,0,0,0,0;0,17,0,17,0,0,0,0,0,0,0
M  ZZE  20 10,10,0,0,0,0,0,0;0,17,0,17,0,0,0,0,0,0,0
M  ZZE  21 10,10,0,0,0,0,0,0;0,17,0,17,0,0,0,0,0,0,0
M  ZZE  22 10,10,0,0,0,0,0,0;0,17,0,17,0,0,0,0,0,0,0
M  ZZE  23 10,10,0,0,0,0,0,0;0,17,0,17,0,0,0,0,0,0,0
M  ZZE  24 10,10,0,0,0,0,0,0;0,4,0,4,0,0,0,0,0,0,0
M  ZZE  25 10,10,0,0,0,0,0,0;0,4,0,4,0,0,0,0,0,0,0
M  ZZE  26 10,10,0,0,0,0,0,0;0,4,0,4,0,0,0,0,0,0,0
M  ZZE  27 10,10,0,0,0,0,0,0;0,4,0,4,0,0,0,0,0,0,0
M  ZZE  28 10,10,0,0,0,0,0,0;0,4,0,4,0,0,0,0,0,0,0
M  CHG  1  24  -1
M  END
> <L>
0

> <N>
0

> <idnumber>
Z1359460504

> <smiles>
CN(c1ccc(cc1)S(C)(=O)=O)S(c1ccc(cc1)C(CCC(O)=O)=O)(=O)=O

> <r_i_docking_score>
-5.323028

> <s_m_entry_id>
0

> <CO>
0

> <ord>
0

> <r_pdb_PDB_CRYST1_alpha>
0

> <cl>
0

> <chiral_flag>
0

> <r_pdb_PDB_CRYST1_beta>
0

> <version>
0

> <r_pdb_PDB_CRYST1_gamma>
0

> <i_pdb_PDB_CRYST1_z>
0

> <i_lp_mmshare_version>
0

> <i_m_Source_File_Index>
0

> <s_ppw_entry_id_backup>
0

> <b_ppw_prepared>
0

> <i_epik_Tot_Q>
0

> <b_ppw_assigned_bond_orders>
0

> <i_epik_Tot_abs_Q>
0

> <b_ppw_added_hydrogens>
0

> <b_ppw_treated_metals>
0

> <b_ppw_created_disulfur>
0

> <b_lp_Chiralities_Consistent>
0

> <b_ppw_deleted_far_waters>
0

> <r_lp_tautomer_probability>
0

> <b_ppw_ran_protassign>
0

> <i_f3d_flags>
0

> <i_i_glide_lignum>
0

> <i_i_glide_rotatable_bonds>
0

> <r_i_target_temperature>
0

> <b_ppw_ran_impref>
0

> <r_i_glide_metal>
0

> <i_glide_grid_version>
0

> <r_glide_gridbox_xrange>
0

> <r_glide_gridbox_yrange>
0

> <r_glide_gridbox_zrange>
0

> <r_glide_gridbox_ligxrange>
0

> <r_glide_gridbox_ligyrange>
0

> <i_i_glide_confnum>
0

> <i_i_glide_posenum>
0

> <r_glide_gridbox_ligzrange>
0

> <b_glide_receptor>
0

> <b_glide_conssat_A_ARG_221_H_hbond_>
0

> <b_glide_conssat_A_ARG_221_HE_hbond_>
0

> <b_glide_conssat_A_TYR_261_HH_hbond_>
0

> <b_m_subgroup_collapsed>
0

> <O>
73

> <CO_1>
0

> <ord_1>
0

> <cl_1>
0

> <ord_2>
0

> <cl_2>
0

> <CO_2>
0

> <cl_3>
0

$$$$
C19H21N3O6S
  MOLSOFT 07311914272D

 29 31  0  0  0  0  0  0  0  0999 V2000
    9.0590   -1.8438    0.0000 C   0  0  0
    7.9264   -1.0209    0.0000 C   0  0  0
    8.3590    0.3105    0.0000 C   0  0  0
    9.7590    0.3105    0.0000 N   0  0  0
   10.1916   -1.0209    0.0000 C   0  0  0
   10.5819    1.4432    0.0000 C   0  0  0
   10.0125    2.7221    0.0000 C   0  0  0
    8.6431    3.0132    0.0000 C   0  0  0
    8.4967    4.4055    0.0000 C   0  0  0
    9.7757    4.9750    0.0000 C   0  0  0
   10.7125    3.9346    0.0000 N   0  0  0
    7.2843    5.1055    0.0000 S   0  0  0
    6.0718    5.8055    0.0000 N   0  0  0
    4.8594    5.1055    0.0000 C   0  0  0
    4.8594    3.7055    0.0000 C   0  0  0
    3.6470    3.0055    0.0000 C   0  0  0
    2.4345    3.7055    0.0000 C   0  0  0
    2.4345    5.1055    0.0000 C   0  0  0
    3.6470    5.8055    0.0000 C   0  0  0
    1.2221    5.8055    0.0000 C   0  0  0
    0.0097    5.1055    0.0000 C   0  0  0
   -1.2028    5.8055    0.0000 C   0  0  0
   -2.4152    5.1055    0.0000 C   0  0  0
   -2.4152    3.7055    0.0000 O   0  5  0
   -3.6276    5.8055    0.0000 O   0  0  0
    1.2221    7.2055    0.0000 O   0  0  0
    6.5843    3.8931    0.0000 O   0  0  0
    7.9843    6.3180    0.0000 O   0  0  0
   11.9742    1.2968    0.0000 O   0  0  0
  1  2  1
  1  5  1
  2  3  1
  3  4  1
  4  5  1
  4  6  1
  6  7  1
  6 29  2
  7  8  2
  7 11  1
  8  9  1
  9 10  2
  9 12  1
 10 11  1
 12 13  1
 12 27  2
 12 28  2
 13 14  1
 14 15  1
 14 19  2
 15 16  2
 16 17  1
 17 18  2
 18 19  1
 18 20  1
 20 21  1
 20 26  2
 21 22  1
 22 23  1
 23 24  1
 23 25  2
M  ZZE   1 10,10,0,0,0,0,0,0;0,17,0,17,0,0,0,0,0,0,0
M  ZZE   2 10,10,0,0,0,0,0,0;0,17,0,17,0,0,0,0,0,0,0
M  ZZE   3 10,10,0,0,0,0,0,0;0,17,0,17,0,0,0,0,0,0,0
M  ZZE   4 10,10,0,0,0,0,0,0;0,3,0,3,0,0,0,0,0,0,0
M  ZZE   5 10,10,0,0,0,0,0,0;0,17,0,17,0,0,0,0,0,0,0
M  ZZE   6 10,10,0,0,0,0,0,0;0,17,0,17,0,0,0,0,0,0,0
M  ZZE   7 10,10,0,0,0,0,0,0;0,17,0,17,0,0,0,0,0,0,0
M  ZZE   8 10,10,0,0,0,0,0,0;0,17,0,17,0,0,0,0,0,0,0
M  ZZE   9 10,10,0,0,0,0,0,0;0,17,0,17,0,0,0,0,0,0,0
M  ZZE  10 10,10,0,0,0,0,0,0;0,17,0,17,0,0,0,0,0,0,0
M  ZZE  11 10,10,0,0,0,0,0,0;0,3,0,3,0,0,0,0,0,0,0
M  ZZE  12 10,10,0,0,0,0,0,0;0,5,0,5,0,0,0,0,0,0,0
M  ZZE  13 10,10,0,0,0,0,0,0;0,3,0,3,0,0,0,0,0,0,0
M  ZZE  14 10,10,0,0,0,0,0,0;0,17,0,17,0,0,0,0,0,0,0
M  ZZE  15 10,10,0,0,0,0,0,0;0,17,0,17,0,0,0,0,0,0,0
M  ZZE  16 10,10,0,0,0,0,0,0;0,17,0,17,0,0,0,0,0,0,0
M  ZZE  17 10,10,0,0,0,0,0,0;0,17,0,17,0,0,0,0,0,0,0
M  ZZE  18 10,10,0,0,0,0,0,0;0,17,0,17,0,0,0,0,0,0,0
M  ZZE  19 10,10,0,0,0,0,0,0;0,17,0,17,0,0,0,0,0,0,0
M  ZZE  20 10,10,0,0,0,0,0,0;0,17,0,17,0,0,0,0,0,0,0
M  ZZE  21 10,10,0,0,0,0,0,0;0,17,0,17,0,0,0,0,0,0,0
M  ZZE  22 10,10,0,0,0,0,0,0;0,17,0,17,0,0,0,0,0,0,0
M  ZZE  23 10,10,0,0,0,0,0,0;0,17,0,17,0,0,0,0,0,0,0
M  ZZE  24 10,10,0,0,0,0,0,0;0,4,0,4,0,0,0,0,0,0,0
M  ZZE  25 10,10,0,0,0,0,0,0;0,4,0,4,0,0,0,0,0,0,0
M  ZZE  26 10,10,0,0,0,0,0,0;0,4,0,4,0,0,0,0,0,0,0
M  ZZE  27 10,10,0,0,0,0,0,0;0,4,0,4,0,0,0,0,0,0,0
M  ZZE  28 10,10,0,0,0,0,0,0;0,4,0,4,0,0,0,0,0,0,0
M  ZZE  29 10,10,0,0,0,0,0,0;0,4,0,4,0,0,0,0,0,0,0
M  CHG  1  24  -1
M  END
> <L>
0

> <N>
0

> <idnumber>
Z1373577229

> <smiles>
C1CCN(C1)C(c1cc(c[nH]1)S(Nc1cccc(c1)C(CCC(O)=O)=O)(=O)=O)=O

> <r_i_docking_score>
-5.532911

> <s_m_entry_id>
0

> <CO>
0

> <ord>
0

> <r_pdb_PDB_CRYST1_alpha>
0

> <cl>
0

> <chiral_flag>
0

> <r_pdb_PDB_CRYST1_beta>
0

> <version>
0

> <r_pdb_PDB_CRYST1_gamma>
0

> <i_pdb_PDB_CRYST1_z>
0

> <i_lp_mmshare_version>
0

> <i_m_Source_File_Index>
0

> <s_ppw_entry_id_backup>
0

> <b_ppw_prepared>
0

> <i_epik_Tot_Q>
0

> <b_ppw_assigned_bond_orders>
0

> <i_epik_Tot_abs_Q>
0

> <b_ppw_added_hydrogens>
0

> <b_ppw_treated_metals>
0

> <b_ppw_created_disulfur>
0

> <b_lp_Chiralities_Consistent>
0

> <b_ppw_deleted_far_waters>
0

> <r_lp_tautomer_probability>
0

> <b_ppw_ran_protassign>
0

> <i_f3d_flags>
0

> <i_i_glide_lignum>
0

> <i_i_glide_rotatable_bonds>
0

> <r_i_target_temperature>
0

> <b_ppw_ran_impref>
0

> <r_i_glide_metal>
0

> <i_glide_grid_version>
0

> <r_glide_gridbox_xrange>
0

> <r_glide_gridbox_yrange>
0

> <r_glide_gridbox_zrange>
0

> <r_glide_gridbox_ligxrange>
0

> <r_glide_gridbox_ligyrange>
0

> <i_i_glide_confnum>
0

> <i_i_glide_posenum>
0

> <r_glide_gridbox_ligzrange>
0

> <b_glide_receptor>
0

> <b_glide_conssat_A_ARG_221_H_hbond_>
0

> <b_glide_conssat_A_ARG_221_HE_hbond_>
0

> <b_glide_conssat_A_TYR_261_HH_hbond_>
0

> <b_m_subgroup_collapsed>
0

> <O>
74

> <CO_1>
0

> <ord_1>
0

> <cl_1>
0

> <ord_2>
0

> <cl_2>
0

> <CO_2>
0

> <cl_3>
0

$$$$
C17H14FNO7S
  MOLSOFT 07311914272D

 27 28  0  0  0  0  0  0  0  0999 V2000
   -3.5000   -1.2124    0.0000 C   0  0  0
   -2.1000   -1.2124    0.0000 C   0  0  0
   -1.4000    0.0000    0.0000 C   0  0  0
    0.0000    0.0000    0.0000 C   0  0  0
    0.7000    1.2124    0.0000 C   0  0  0
    2.1000    1.2124    0.0000 C   0  0  0
    2.8000    0.0000    0.0000 C   0  0  0
    2.1000   -1.2124    0.0000 C   0  0  0
    0.7000   -1.2124    0.0000 C   0  0  0
    2.8000   -2.4249    0.0000 N   0  0  0
    4.2000   -2.4249    0.0000 S   0  0  0
    5.6000   -2.4249    0.0000 C   0  0  0
    6.3000   -1.2124    0.0000 C   0  0  0
    7.7000   -1.2124    0.0000 C   0  0  0
    8.4000   -2.4249    0.0000 C   0  0  0
    7.7000   -3.6373    0.0000 C   0  0  0
    6.3000   -3.6373    0.0000 C   0  0  0
    8.4000   -4.8497    0.0000 F   0  0  0
    8.4000   -0.0000    0.0000 C   0  0  0
    9.8000   -0.0000    0.0000 O   0  5  0
    7.7000    1.2124    0.0000 O   0  0  0
    4.2000   -3.8249    0.0000 O   0  0  0
    4.2000   -1.0249    0.0000 O   0  0  0
   -2.1000    1.2124    0.0000 O   0  0  0
   -4.2000   -2.4249    0.0000 C   0  0  0
   -3.5000   -3.6373    0.0000 O   0  5  0
   -5.6000   -2.4249    0.0000 O   0  0  0
  1  2  1
  1 25  1
  2  3  1
  3  4  1
  3 24  2
  4  5  1
  4  9  2
  5  6  2
  6  7  1
  7  8  2
  8  9  1
  8 10  1
 10 11  1
 11 12  1
 11 22  2
 11 23  2
 12 13  1
 12 17  2
 13 14  2
 14 15  1
 14 19  1
 15 16  2
 16 17  1
 16 18  1
 19 20  1
 19 21  2
 25 26  1
 25 27  2
M  ZZE   1 10,10,0,0,0,0,0,0;0,17,0,17,0,0,0,0,0,0,0
M  ZZE   2 10,10,0,0,0,0,0,0;0,17,0,17,0,0,0,0,0,0,0
M  ZZE   3 10,10,0,0,0,0,0,0;0,17,0,17,0,0,0,0,0,0,0
M  ZZE   4 10,10,0,0,0,0,0,0;0,17,0,17,0,0,0,0,0,0,0
M  ZZE   5 10,10,0,0,0,0,0,0;0,17,0,17,0,0,0,0,0,0,0
M  ZZE   6 10,10,0,0,0,0,0,0;0,17,0,17,0,0,0,0,0,0,0
M  ZZE   7 10,10,0,0,0,0,0,0;0,17,0,17,0,0,0,0,0,0,0
M  ZZE   8 10,10,0,0,0,0,0,0;0,17,0,17,0,0,0,0,0,0,0
M  ZZE   9 10,10,0,0,0,0,0,0;0,17,0,17,0,0,0,0,0,0,0
M  ZZE  10 10,10,0,0,0,0,0,0;0,3,0,3,0,0,0,0,0,0,0
M  ZZE  11 10,10,0,0,0,0,0,0;0,5,0,5,0,0,0,0,0,0,0
M  ZZE  12 10,10,0,0,0,0,0,0;0,17,0,17,0,0,0,0,0,0,0
M  ZZE  13 10,10,0,0,0,0,0,0;0,17,0,17,0,0,0,0,0,0,0
M  ZZE  14 10,10,0,0,0,0,0,0;0,17,0,17,0,0,0,0,0,0,0
M  ZZE  15 10,10,0,0,0,0,0,0;0,17,0,17,0,0,0,0,0,0,0
M  ZZE  16 10,10,0,0,0,0,0,0;0,17,0,17,0,0,0,0,0,0,0
M  ZZE  17 10,10,0,0,0,0,0,0;0,17,0,17,0,0,0,0,0,0,0
M  ZZE  18 10,10,0,0,0,0,0,0;0,101,0,101,0,0,0,0,0,0,0
M  ZZE  19 10,10,0,0,0,0,0,0;0,17,0,17,0,0,0,0,0,0,0
M  ZZE  20 10,10,0,0,0,0,0,0;0,4,0,4,0,0,0,0,0,0,0
M  ZZE  21 10,10,0,0,0,0,0,0;0,4,0,4,0,0,0,0,0,0,0
M  ZZE  22 10,10,0,0,0,0,0,0;0,4,0,4,0,0,0,0,0,0,0
M  ZZE  23 10,10,0,0,0,0,0,0;0,4,0,4,0,0,0,0,0,0,0
M  ZZE  24 10,10,0,0,0,0,0,0;0,4,0,4,0,0,0,0,0,0,0
M  ZZE  25 10,10,0,0,0,0,0,0;0,17,0,17,0,0,0,0,0,0,0
M  ZZE  26 10,10,0,0,0,0,0,0;0,4,0,4,0,0,0,0,0,0,0
M  ZZE  27 10,10,0,0,0,0,0,0;0,4,0,4,0,0,0,0,0,0,0
M  CHG  2  20  -1  26  -1
M  END
> <L>
0

> <N>
83

> <idnumber>
Z1413958985

> <smiles>
C(CC(c1cccc(c1)NS(c1cc(cc(c1)F)C(O)=O)(=O)=O)=O)C(O)=O

> <r_i_docking_score>
-4.751019

> <s_m_entry_id>
679

> <s_m_entry_name>
glide-dock_SP_1.83

> <CO>
253

> <ord>
85

> <r_pdb_PDB_CRYST1_alpha>
0

> <cl>
24

> <chiral_flag>
0

> <r_pdb_PDB_CRYST1_beta>
0

> <version>
0

> <r_pdb_PDB_CRYST1_gamma>
0

> <i_pdb_PDB_CRYST1_z>
0

> <i_lp_mmshare_version>
45011

> <s_epik_input>
W09IXUMoPU8pW0NIMl1bQ0gyXUMoPU8pYzFbY0hdW2NIXVtjSF1jKFtjSF0xKVtOSF1TKD1PKSg9TyljMltjSF1jKEMoPU8pW09IXSlbY0hdYyhGKVtjSF0y

> <s_epik_cmdline>
J2VwaWtfcHl0aG9uJywgJy1waCcsICc3LjMnLCAnLXRuJywgJzgnLCAnLW1hJywgJzIwMCcsICctaW1hZScsICc8aW5maWxlLm1hZT4nLCAnLW9tYWUnLCAnPG91dGZpbGUubWFlPic=

> <r_epik_Ionization_Penalty>
  0.2698

> <s_m_Source_File>
ligprep_1.sdf

> <i_m_Source_File_Index>
85

> <r_epik_Ionization_Penalty_Charging>
  0.0006

> <r_epik_Ionization_Penalty_Neutral>
  0.2692

> <s_ppw_entry_id_backup>
0

> <r_epik_State_Penalty>
  0.2613

> <r_epik_Charging_Adjusted_Penalty>
0.261897

> <b_ppw_prepared>
0

> <i_epik_Tot_Q>
-2

> <b_ppw_assigned_bond_orders>
0

> <i_epik_Tot_abs_Q>
2

> <s_lp_Force_Field>
OPLS3e

> <b_ppw_added_hydrogens>
0

> <b_ppw_treated_metals>
0

> <r_lp_Energy>
25.671384

> <b_ppw_created_disulfur>
0

> <b_lp_Chiralities_Consistent>
1

> <s_lp_Variant>
C17H14FNO7S-1

> <b_ppw_deleted_far_waters>
0

> <s_m_job_name>
glide-dock_SP_1

> <r_lp_tautomer_probability>
1

> <b_ppw_ran_protassign>
0

> <i_f3d_flags>
0

> <s_i_glide_gridfile>
glide-grid_1

> <i_i_glide_lignum>
171

> <i_i_glide_rotatable_bonds>
8

> <r_i_glide_ligand_efficiency>
-0.175964

> <r_i_glide_ligand_efficiency_sa>
-0.527891

> <r_i_glide_ligand_efficiency_ln>
-1.105959

> <r_i_glide_gscore>
-5.012319

> <r_i_glide_lipo>
-0.650212

> <r_i_target_temperature>
0

> <r_i_glide_hbond>
-0.68

> <b_ppw_ran_impref>
0

> <r_i_glide_metal>
0

> <r_i_glide_rewards>
-1.049684

> <i_glide_grid_version>
0

> <r_i_glide_evdw>
-21.192287

> <r_i_glide_ecoul>
-16.740358

> <r_i_glide_erotb>
1.010028

> <r_glide_gridbox_xrange>
0

> <r_i_glide_esite>
-0.071782

> <r_glide_gridbox_yrange>
0

> <r_i_glide_emodel>
-57.439922

> <r_glide_gridbox_zrange>
0

> <r_i_glide_energy>
-37.932646

> <r_i_glide_einternal>
4.326041

> <r_glide_gridbox_ligxrange>
0

> <r_glide_gridbox_ligyrange>
0

> <i_i_glide_confnum>
102

> <i_i_glide_posenum>
637

> <r_glide_gridbox_ligzrange>
0

> <r_i_glide_eff_state_penalty>
0.2613

> <b_glide_receptor>
0

> <r_i_glide_rmsd>
0.159854

> <b_glide_conssat_A_ARG_221_H_hbond_>
0

> <b_glide_conssat_A_ARG_221_HE_hbond_>
0

> <b_glide_conssat_A_TYR_261_HH_hbond_>
1

> <s_m_subgroup_title>
glide-dock_SP_1_pv1

> <s_m_subgroupid>
glide-dock_SP_1_pv1

> <b_m_subgroup_collapsed>
1

> <O>
75

> <CO_1>
48

> <ord_1>
99

> <cl_1>
5

> <ord_2>
2

> <cl_2>
0

> <CO_2>
20

> <cl_3>
1

$$$$
C19H24N2O4
  MOLSOFT 07311914272D

 25 26  0  0  0  0  0  0  0  0999 V2000
    9.7285   -0.4344    0.0000 C   0  0  0
    8.5959   -1.2573    0.0000 C   0  0  0
    8.7422   -2.6496    0.0000 C   0  0  0
    7.6096   -3.4725    0.0000 N   0  0  0
    6.2781   -3.0399    0.0000 C   0  0  0
    5.8455   -1.7084    0.0000 C   0  0  0
    5.4552   -4.1725    0.0000 C   0  0  0
    4.0552   -4.1725    0.0000 C   0  0  0
    3.3552   -5.3849    0.0000 C   0  0  0
    1.9552   -5.3849    0.0000 C   0  0  0
    1.2552   -4.1725    0.0000 C   0  0  0
    1.9552   -2.9601    0.0000 C   0  0  0
    3.3552   -2.9601    0.0000 C   0  0  0
    1.2552   -1.7476    0.0000 C   0  0  0
   -0.1448   -1.7476    0.0000 C   0  0  0
   -0.8448   -0.5352    0.0000 C   0  0  0
   -2.2448   -0.5352    0.0000 C   0  0  0
   -2.9448   -1.7476    0.0000 O   0  5  0
   -2.9448    0.6772    0.0000 O   0  0  0
    1.9552   -0.5352    0.0000 O   0  0  0
   -0.1448   -4.1725    0.0000 O   0  0  0
   -0.8448   -5.3849    0.0000 C   0  0  0
    6.2781   -5.3051    0.0000 C   0  0  0
    5.8455   -6.6366    0.0000 C   0  0  0
    7.6096   -4.8725    0.0000 N   0  0  0
  1  2  1
  2  3  1
  3  4  1
  4  5  1
  4 25  1
  5  6  1
  5  7  2
  7  8  1
  7 23  1
  8  9  1
  8 13  2
  9 10  2
 10 11  1
 11 12  2
 11 21  1
 12 13  1
 12 14  1
 14 15  1
 14 20  2
 15 16  1
 16 17  1
 17 18  1
 17 19  2
 21 22  1
 23 24  1
 23 25  2
M  ZZE   1 10,10,0,0,0,0,0,0;0,17,0,17,0,0,0,0,0,0,0
M  ZZE   2 10,10,0,0,0,0,0,0;0,17,0,17,0,0,0,0,0,0,0
M  ZZE   3 10,10,0,0,0,0,0,0;0,17,0,17,0,0,0,0,0,0,0
M  ZZE   4 10,10,0,0,0,0,0,0;0,3,0,3,0,0,0,0,0,0,0
M  ZZE   5 10,10,0,0,0,0,0,0;0,17,0,17,0,0,0,0,0,0,0
M  ZZE   6 10,10,0,0,0,0,0,0;0,17,0,17,0,0,0,0,0,0,0
M  ZZE   7 10,10,0,0,0,0,0,0;0,17,0,17,0,0,0,0,0,0,0
M  ZZE   8 10,10,0,0,0,0,0,0;0,17,0,17,0,0,0,0,0,0,0
M  ZZE   9 10,10,0,0,0,0,0,0;0,17,0,17,0,0,0,0,0,0,0
M  ZZE  10 10,10,0,0,0,0,0,0;0,17,0,17,0,0,0,0,0,0,0
M  ZZE  11 10,10,0,0,0,0,0,0;0,17,0,17,0,0,0,0,0,0,0
M  ZZE  12 10,10,0,0,0,0,0,0;0,17,0,17,0,0,0,0,0,0,0
M  ZZE  13 10,10,0,0,0,0,0,0;0,17,0,17,0,0,0,0,0,0,0
M  ZZE  14 10,10,0,0,0,0,0,0;0,17,0,17,0,0,0,0,0,0,0
M  ZZE  15 10,10,0,0,0,0,0,0;0,17,0,17,0,0,0,0,0,0,0
M  ZZE  16 10,10,0,0,0,0,0,0;0,17,0,17,0,0,0,0,0,0,0
M  ZZE  17 10,10,0,0,0,0,0,0;0,17,0,17,0,0,0,0,0,0,0
M  ZZE  18 10,10,0,0,0,0,0,0;0,4,0,4,0,0,0,0,0,0,0
M  ZZE  19 10,10,0,0,0,0,0,0;0,4,0,4,0,0,0,0,0,0,0
M  ZZE  20 10,10,0,0,0,0,0,0;0,4,0,4,0,0,0,0,0,0,0
M  ZZE  21 10,10,0,0,0,0,0,0;0,4,0,4,0,0,0,0,0,0,0
M  ZZE  22 10,10,0,0,0,0,0,0;0,17,0,17,0,0,0,0,0,0,0
M  ZZE  23 10,10,0,0,0,0,0,0;0,17,0,17,0,0,0,0,0,0,0
M  ZZE  24 10,10,0,0,0,0,0,0;0,17,0,17,0,0,0,0,0,0,0
M  ZZE  25 10,10,0,0,0,0,0,0;0,3,0,3,0,0,0,0,0,0,0
M  CHG  1  18  -1
M  END
> <L>
0

> <N>
88

> <idnumber>
Z2581558272

> <smiles>
CCCn1c(C)c(c2ccc(c(c2)C(CCC(O)=O)=O)OC)c(C)n1

> <r_i_docking_score>
-4.73936

> <s_m_entry_id>
684

> <s_m_entry_name>
glide-dock_SP_1.88

> <CO>
284

> <ord>
284

> <r_pdb_PDB_CRYST1_alpha>
0

> <cl>
174

> <chiral_flag>
0

> <r_pdb_PDB_CRYST1_beta>
0

> <version>
0

> <r_pdb_PDB_CRYST1_gamma>
0

> <i_pdb_PDB_CRYST1_z>
0

> <i_lp_mmshare_version>
45011

> <s_epik_input>
W0NIM11bQ0gyXVtDSDJdbjFjKFtDSDNdKWMoYyhuMSlbQ0gzXSktYzJbY0hdW2NIXWMoT1tDSDNdKWMoW2NIXTIpQyg9TylbQ0gyXVtDSDJdQyg9TylbT0hd

> <s_epik_cmdline>
J2VwaWtfcHl0aG9uJywgJy1waCcsICc3LjMnLCAnLXRuJywgJzgnLCAnLW1hJywgJzIwMCcsICctaW1hZScsICc8aW5maWxlLm1hZT4nLCAnLW9tYWUnLCAnPG91dGZpbGUubWFlPic=

> <r_epik_Ionization_Penalty>
  0.0006

> <s_m_Source_File>
ligprep_1.sdf

> <i_m_Source_File_Index>
284

> <r_epik_Ionization_Penalty_Charging>
  0.0005

> <r_epik_Ionization_Penalty_Neutral>
  0.0001

> <s_ppw_entry_id_backup>
0

> <r_epik_State_Penalty>
  0.0003

> <r_epik_Charging_Adjusted_Penalty>
0.000857

> <b_ppw_prepared>
0

> <i_epik_Tot_Q>
-1

> <b_ppw_assigned_bond_orders>
0

> <i_epik_Tot_abs_Q>
1

> <s_lp_Force_Field>
OPLS3e

> <b_ppw_added_hydrogens>
0

> <b_ppw_treated_metals>
0

> <r_lp_Energy>
19.571198

> <b_ppw_created_disulfur>
0

> <b_lp_Chiralities_Consistent>
1

> <s_lp_Variant>
C19H24N2O4-1

> <b_ppw_deleted_far_waters>
0

> <s_m_job_name>
glide-dock_SP_1

> <r_lp_tautomer_probability>
1

> <b_ppw_ran_protassign>
0

> <i_f3d_flags>
0

> <s_i_glide_gridfile>
glide-grid_1

> <i_i_glide_lignum>
586

> <i_i_glide_rotatable_bonds>
8

> <r_i_glide_ligand_efficiency>
-0.189574

> <r_i_glide_ligand_efficiency_sa>
-0.554319

> <r_i_glide_ligand_efficiency_ln>
-1.12337

> <r_i_glide_gscore>
-4.73966

> <r_i_glide_lipo>
-0.689988

> <r_i_target_temperature>
0

> <r_i_glide_hbond>
-0.48

> <b_ppw_ran_impref>
0

> <r_i_glide_metal>
0

> <r_i_glide_rewards>
-1.458545

> <i_glide_grid_version>
0

> <r_i_glide_evdw>
-25.698681

> <r_i_glide_ecoul>
-11.765467

> <r_i_glide_erotb>
0.965447

> <r_glide_gridbox_xrange>
0

> <r_i_glide_esite>
-0.02682

> <r_glide_gridbox_yrange>
0

> <r_i_glide_emodel>
-52.770068

> <r_glide_gridbox_zrange>
0

> <r_i_glide_energy>
-37.464148

> <r_i_glide_einternal>
3.265479

> <r_glide_gridbox_ligxrange>
0

> <r_glide_gridbox_ligyrange>
0

> <i_i_glide_confnum>
23

> <i_i_glide_posenum>
166

> <r_glide_gridbox_ligzrange>
0

> <r_i_glide_eff_state_penalty>
0.0003

> <b_glide_receptor>
0

> <r_i_glide_rmsd>
0.214181

> <b_glide_conssat_A_ARG_221_H_hbond_>
0

> <b_glide_conssat_A_ARG_221_HE_hbond_>
0

> <b_glide_conssat_A_TYR_261_HH_hbond_>
1

> <s_m_subgroup_title>
glide-dock_SP_1_pv1

> <s_m_subgroupid>
glide-dock_SP_1_pv1

> <b_m_subgroup_collapsed>
1

> <O>
76

> <CO_1>
52

> <ord_1>
284

> <cl_1>
57

> <ord_2>
5

> <cl_2>
0

> <CO_2>
42

> <cl_3>
4

$$$$
C21H21F2NO5S
  MOLSOFT 07311914272D

 30 32  0  0  0  0  0  0  0  0999 V2000
    4.6945    0.0745    0.0000 C   0  0  0
    3.4820    0.7745    0.0000 C   0  0  0
    3.4820    2.1745    0.0000 N   0  0  0
    4.6945    2.8745    0.0000 C   0  0  0
    5.9069    2.1745    0.0000 C   0  0  0
    5.9069    0.7745    0.0000 C   0  0  0
    7.1193    0.0745    0.0000 C   0  0  0
    8.3318    0.7745    0.0000 C   0  0  0
    9.5442    0.0745    0.0000 C   0  0  0
    9.5442   -1.3255    0.0000 C   0  0  0
    8.3318   -2.0255    0.0000 C   0  0  0
    7.1193   -1.3255    0.0000 C   0  0  0
    8.3318   -3.4255    0.0000 F   0  0  0
   10.7566   -2.0255    0.0000 F   0  0  0
    2.2696    2.8745    0.0000 S   0  0  0
    1.0571    3.5745    0.0000 C   0  0  0
   -0.1553    2.8745    0.0000 C   0  0  0
   -1.3677    3.5745    0.0000 C   0  0  0
   -1.3677    4.9745    0.0000 C   0  0  0
   -0.1553    5.6745    0.0000 C   0  0  0
    1.0571    4.9745    0.0000 C   0  0  0
   -2.5802    5.6745    0.0000 C   0  0  0
   -3.7926    4.9745    0.0000 C   0  0  0
   -5.0050    5.6745    0.0000 C   0  0  0
   -6.2175    4.9745    0.0000 C   0  0  0
   -6.2175    3.5745    0.0000 O   0  5  0
   -7.4299    5.6745    0.0000 O   0  0  0
   -2.5802    7.0745    0.0000 O   0  0  0
    1.5696    1.6620    0.0000 O   0  0  0
    2.9696    4.0869    0.0000 O   0  0  0
  1  2  1
  1  6  1
  2  3  1
  3  4  1
  3 15  1
  4  5  1
  5  6  1
  6  7  1
  7  8  1
  7 12  2
  8  9  2
  9 10  1
 10 11  2
 10 14  1
 11 12  1
 11 13  1
 15 16  1
 15 29  2
 15 30  2
 16 17  1
 16 21  2
 17 18  2
 18 19  1
 19 20  2
 19 22  1
 20 21  1
 22 23  1
 22 28  2
 23 24  1
 24 25  1
 25 26  1
 25 27  2
M  ZZE   1 10,10,0,0,0,0,0,0;0,17,0,17,0,0,0,0,0,0,0
M  ZZE   2 10,10,0,0,0,0,0,0;0,17,0,17,0,0,0,0,0,0,0
M  ZZE   3 10,10,0,0,0,0,0,0;0,3,0,3,0,0,0,0,0,0,0
M  ZZE   4 10,10,0,0,0,0,0,0;0,17,0,17,0,0,0,0,0,0,0
M  ZZE   5 10,10,0,0,0,0,0,0;0,17,0,17,0,0,0,0,0,0,0
M  ZZE   6 10,10,0,0,0,0,0,0;0,17,0,17,0,0,0,0,0,0,0
M  ZZE   7 10,10,0,0,0,0,0,0;0,17,0,17,0,0,0,0,0,0,0
M  ZZE   8 10,10,0,0,0,0,0,0;0,17,0,17,0,0,0,0,0,0,0
M  ZZE   9 10,10,0,0,0,0,0,0;0,17,0,17,0,0,0,0,0,0,0
M  ZZE  10 10,10,0,0,0,0,0,0;0,17,0,17,0,0,0,0,0,0,0
M  ZZE  11 10,10,0,0,0,0,0,0;0,17,0,17,0,0,0,0,0,0,0
M  ZZE  12 10,10,0,0,0,0,0,0;0,17,0,17,0,0,0,0,0,0,0
M  ZZE  13 10,10,0,0,0,0,0,0;0,101,0,101,0,0,0,0,0,0,0
M  ZZE  14 10,10,0,0,0,0,0,0;0,101,0,101,0,0,0,0,0,0,0
M  ZZE  15 10,10,0,0,0,0,0,0;0,5,0,5,0,0,0,0,0,0,0
M  ZZE  16 10,10,0,0,0,0,0,0;0,17,0,17,0,0,0,0,0,0,0
M  ZZE  17 10,10,0,0,0,0,0,0;0,17,0,17,0,0,0,0,0,0,0
M  ZZE  18 10,10,0,0,0,0,0,0;0,17,0,17,0,0,0,0,0,0,0
M  ZZE  19 10,10,0,0,0,0,0,0;0,17,0,17,0,0,0,0,0,0,0
M  ZZE  20 10,10,0,0,0,0,0,0;0,17,0,17,0,0,0,0,0,0,0
M  ZZE  21 10,10,0,0,0,0,0,0;0,17,0,17,0,0,0,0,0,0,0
M  ZZE  22 10,10,0,0,0,0,0,0;0,17,0,17,0,0,0,0,0,0,0
M  ZZE  23 10,10,0,0,0,0,0,0;0,17,0,17,0,0,0,0,0,0,0
M  ZZE  24 10,10,0,0,0,0,0,0;0,17,0,17,0,0,0,0,0,0,0
M  ZZE  25 10,10,0,0,0,0,0,0;0,17,0,17,0,0,0,0,0,0,0
M  ZZE  26 10,10,0,0,0,0,0,0;0,4,0,4,0,0,0,0,0,0,0
M  ZZE  27 10,10,0,0,0,0,0,0;0,4,0,4,0,0,0,0,0,0,0
M  ZZE  28 10,10,0,0,0,0,0,0;0,4,0,4,0,0,0,0,0,0,0
M  ZZE  29 10,10,0,0,0,0,0,0;0,4,0,4,0,0,0,0,0,0,0
M  ZZE  30 10,10,0,0,0,0,0,0;0,4,0,4,0,0,0,0,0,0,0
M  CHG  1  26  -1
M  END
> <L>
0

> <N>
172

> <idnumber>
Z1359463303

> <smiles>
C1CN(CCC1c1ccc(c(c1)F)F)S(c1ccc(cc1)C(CCC(O)=O)=O)(=O)=O

> <r_i_docking_score>
-4.538963

> <s_m_entry_id>
768

> <s_m_entry_name>
glide-dock_SP_1.172

> <CO>
69

> <ord>
253

> <r_pdb_PDB_CRYST1_alpha>
0

> <cl>
144

> <chiral_flag>
0

> <r_pdb_PDB_CRYST1_beta>
0

> <version>
0

> <r_pdb_PDB_CRYST1_gamma>
0

> <i_pdb_PDB_CRYST1_z>
0

> <i_lp_mmshare_version>
45011

> <s_epik_input>
W2NIXTFjKEYpYyhGKVtjSF1bY0hdYzFbQ0hdKFtDSDJdW0NIMl0yKVtDSDJdW0NIMl1OMlMoPU8pKD1PKWMzW2NIXVtjSF1jKFtjSF1bY0hdMylDKD1PKVtDSDJdW0NIMl1DKD1PKVtPSF0=

> <s_epik_cmdline>
J2VwaWtfcHl0aG9uJywgJy1waCcsICc3LjMnLCAnLXRuJywgJzgnLCAnLW1hJywgJzIwMCcsICctaW1hZScsICc8aW5maWxlLm1hZT4nLCAnLW9tYWUnLCAnPG91dGZpbGUubWFlPic=

> <r_epik_Ionization_Penalty>
  0.0005

> <s_m_Source_File>
ligprep_1.sdf

> <i_m_Source_File_Index>
253

> <r_epik_Ionization_Penalty_Charging>
  0.0005

> <r_epik_Ionization_Penalty_Neutral>
  0.0000

> <s_ppw_entry_id_backup>
0

> <r_epik_State_Penalty>
  0.0003

> <r_epik_Charging_Adjusted_Penalty>
0.000857

> <b_ppw_prepared>
0

> <i_epik_Tot_Q>
-1

> <b_ppw_assigned_bond_orders>
0

> <i_epik_Tot_abs_Q>
1

> <s_lp_Force_Field>
OPLS3e

> <b_ppw_added_hydrogens>
0

> <b_ppw_treated_metals>
0

> <r_lp_Energy>
29.091025

> <b_ppw_created_disulfur>
0

> <b_lp_Chiralities_Consistent>
1

> <s_lp_Variant>
C21H21F2NO5S-1

> <b_ppw_deleted_far_waters>
0

> <s_m_job_name>
glide-dock_SP_1

> <r_lp_tautomer_probability>
1

> <b_ppw_ran_protassign>
0

> <i_f3d_flags>
0

> <s_i_glide_gridfile>
glide-grid_1

> <i_i_glide_lignum>
509

> <i_i_glide_rotatable_bonds>
7

> <r_i_glide_ligand_efficiency>
-0.151299

> <r_i_glide_ligand_efficiency_sa>
-0.47012

> <r_i_glide_ligand_efficiency_ln>
-1.031302

> <r_i_glide_gscore>
-4.539263

> <r_i_glide_lipo>
-0.919169

> <r_i_target_temperature>
0

> <r_i_glide_hbond>
-0.48

> <b_ppw_ran_impref>
0

> <r_i_glide_metal>
0

> <r_i_glide_rewards>
-0.897805

> <i_glide_grid_version>
0

> <r_i_glide_evdw>
-25.169056

> <r_i_glide_ecoul>
-11.316116

> <r_i_glide_erotb>
0.732488

> <r_glide_gridbox_xrange>
0

> <r_i_glide_esite>
-0.018907

> <r_glide_gridbox_yrange>
0

> <r_i_glide_emodel>
-50.864087

> <r_glide_gridbox_zrange>
0

> <r_i_glide_energy>
-36.485172

> <r_i_glide_einternal>
1.55862

> <r_glide_gridbox_ligxrange>
0

> <r_glide_gridbox_ligyrange>
0

> <i_i_glide_confnum>
95

> <i_i_glide_posenum>
359

> <r_glide_gridbox_ligzrange>
0

> <r_i_glide_eff_state_penalty>
0.0003

> <b_glide_receptor>
0

> <r_i_glide_rmsd>
0.264469

> <b_glide_conssat_A_ARG_221_H_hbond_>
0

> <b_glide_conssat_A_ARG_221_HE_hbond_>
0

> <b_glide_conssat_A_TYR_261_HH_hbond_>
1

> <s_m_subgroup_title>
glide-dock_SP_1_pv1

> <s_m_subgroupid>
glide-dock_SP_1_pv1

> <b_m_subgroup_collapsed>
1

> <O>
77

> <CO_1>
88

> <ord_1>
220

> <cl_1>
22

> <ord_2>
4

> <cl_2>
0

> <CO_2>
38

> <cl_3>
3

$$$$
C20H23NO6S
  MOLSOFT 07311914272D

 28 29  0  0  1  0  0  0  0  0999 V2000
   -4.8141    2.0670    0.0000 C   0  0  0
   -4.8141    0.6670    0.0000 C   0  0  1
   -3.6017   -0.0330    0.0000 C   0  0  0
   -2.3892    0.6670    0.0000 N   0  0  0
   -1.1768   -0.0330    0.0000 S   0  0  0
    0.0356   -0.7330    0.0000 C   0  0  0
    1.2481   -0.0330    0.0000 C   0  0  0
    2.4605   -0.7330    0.0000 C   0  0  0
    2.4605   -2.1330    0.0000 C   0  0  0
    1.2481   -2.8330    0.0000 C   0  0  0
    0.0356   -2.1330    0.0000 C   0  0  0
    3.6729   -2.8330    0.0000 C   0  0  0
    4.8854   -2.1330    0.0000 C   0  0  0
    6.0978   -2.8330    0.0000 C   0  0  0
    7.3103   -2.1330    0.0000 C   0  0  0
    7.3103   -0.7330    0.0000 O   0  5  0
    8.5227   -2.8330    0.0000 O   0  0  0
    3.6729   -4.2330    0.0000 O   0  0  0
   -1.8768   -1.2454    0.0000 O   0  0  0
   -0.4768    1.1794    0.0000 O   0  0  0
   -6.0265   -0.0330    0.0000 O   0  0  0
   -7.2390    0.6670    0.0000 C   0  0  0
   -8.4514   -0.0330    0.0000 C   0  0  0
   -9.6638    0.6670    0.0000 C   0  0  0
   -9.6638    2.0670    0.0000 C   0  0  0
  -10.8763    2.7670    0.0000 C   0  0  0
   -8.4514    2.7670    0.0000 C   0  0  0
   -7.2390    2.0670    0.0000 C   0  0  0
  2  1  1  1
  2  3  1
  2 21  1
  3  4  1
  4  5  1
  5  6  1
  5 19  2
  5 20  2
  6  7  1
  6 11  2
  7  8  2
  8  9  1
  9 10  2
  9 12  1
 10 11  1
 12 13  1
 12 18  2
 13 14  1
 14 15  1
 15 16  1
 15 17  2
 21 22  1
 22 23  1
 22 28  2
 23 24  2
 24 25  1
 25 26  1
 25 27  2
 27 28  1
M  ZZE   1 10,10,0,0,0,0,0,0;0,17,0,17,0,0,0,0,0,0,0
M  ZZE   2 10,10,0,0,0,0,0,0;0,17,0,17,0,0,0,0,0,0,0
M  ZZE   3 10,10,0,0,0,0,0,0;0,17,0,17,0,0,0,0,0,0,0
M  ZZE   4 10,10,0,0,0,0,0,0;0,3,0,3,0,0,0,0,0,0,0
M  ZZE   5 10,10,0,0,0,0,0,0;0,5,0,5,0,0,0,0,0,0,0
M  ZZE   6 10,10,0,0,0,0,0,0;0,17,0,17,0,0,0,0,0,0,0
M  ZZE   7 10,10,0,0,0,0,0,0;0,17,0,17,0,0,0,0,0,0,0
M  ZZE   8 10,10,0,0,0,0,0,0;0,17,0,17,0,0,0,0,0,0,0
M  ZZE   9 10,10,0,0,0,0,0,0;0,17,0,17,0,0,0,0,0,0,0
M  ZZE  10 10,10,0,0,0,0,0,0;0,17,0,17,0,0,0,0,0,0,0
M  ZZE  11 10,10,0,0,0,0,0,0;0,17,0,17,0,0,0,0,0,0,0
M  ZZE  12 10,10,0,0,0,0,0,0;0,17,0,17,0,0,0,0,0,0,0
M  ZZE  13 10,10,0,0,0,0,0,0;0,17,0,17,0,0,0,0,0,0,0
M  ZZE  14 10,10,0,0,0,0,0,0;0,17,0,17,0,0,0,0,0,0,0
M  ZZE  15 10,10,0,0,0,0,0,0;0,17,0,17,0,0,0,0,0,0,0
M  ZZE  16 10,10,0,0,0,0,0,0;0,4,0,4,0,0,0,0,0,0,0
M  ZZE  17 10,10,0,0,0,0,0,0;0,4,0,4,0,0,0,0,0,0,0
M  ZZE  18 10,10,0,0,0,0,0,0;0,4,0,4,0,0,0,0,0,0,0
M  ZZE  19 10,10,0,0,0,0,0,0;0,4,0,4,0,0,0,0,0,0,0
M  ZZE  20 10,10,0,0,0,0,0,0;0,4,0,4,0,0,0,0,0,0,0
M  ZZE  21 10,10,0,0,0,0,0,0;0,4,0,4,0,0,0,0,0,0,0
M  ZZE  22 10,10,0,0,0,0,0,0;0,17,0,17,0,0,0,0,0,0,0
M  ZZE  23 10,10,0,0,0,0,0,0;0,17,0,17,0,0,0,0,0,0,0
M  ZZE  24 10,10,0,0,0,0,0,0;0,17,0,17,0,0,0,0,0,0,0
M  ZZE  25 10,10,0,0,0,0,0,0;0,17,0,17,0,0,0,0,0,0,0
M  ZZE  26 10,10,0,0,0,0,0,0;0,17,0,17,0,0,0,0,0,0,0
M  ZZE  27 10,10,0,0,0,0,0,0;0,17,0,17,0,0,0,0,0,0,0
M  ZZE  28 10,10,0,0,0,0,0,0;0,17,0,17,0,0,0,0,0,0,0
M  CHG  1  16  -1
M  END
> <L>
0

> <N>
371

> <idnumber>
Z1682152871

> <smiles>
CC(CNS(c1ccc(cc1)C(CCC(O)=O)=O)(=O)=O)Oc1ccc(C)cc1

> <r_i_docking_score>
-4.244785

> <s_m_entry_id>
967

> <s_m_entry_name>
glide-dock_SP_1.371

> <CO>
272

> <ord>
178

> <r_pdb_PDB_CRYST1_alpha>
0

> <cl>
82

> <chiral_flag>
0

> <r_pdb_PDB_CRYST1_beta>
0

> <version>
0

> <r_pdb_PDB_CRYST1_gamma>
0

> <i_pdb_PDB_CRYST1_z>
0

> <i_lp_mmshare_version>
45011

> <s_epik_input>
W2NIXTFbY0hdYyhbQ0gzXSlbY0hdW2NIXWMxT1tDQEBIXShbQ0gzXSlbQ0gyXVtOSF1TKD1PKSg9TyljMltjSF1bY0hdYyhbY0hdW2NIXTIpQyg9TylbQ0gyXVtDSDJdQyg9TylbT0hd

> <s_epik_cmdline>
J2VwaWtfcHl0aG9uJywgJy1waCcsICc3LjMnLCAnLXRuJywgJzgnLCAnLW1hJywgJzIwMCcsICctaW1hZScsICc8aW5maWxlLm1hZT4nLCAnLW9tYWUnLCAnPG91dGZpbGUubWFlPic=

> <r_epik_Ionization_Penalty>
  0.0013

> <s_m_Source_File>
ligprep_1.sdf

> <i_m_Source_File_Index>
178

> <r_epik_Ionization_Penalty_Charging>
  0.0005

> <r_epik_Ionization_Penalty_Neutral>
  0.0008

> <s_ppw_entry_id_backup>
0

> <r_epik_State_Penalty>
  0.0000

> <r_epik_Charging_Adjusted_Penalty>
0.000528

> <b_ppw_prepared>
0

> <i_epik_Tot_Q>
-1

> <b_ppw_assigned_bond_orders>
0

> <i_epik_Tot_abs_Q>
1

> <s_lp_Force_Field>
OPLS3e

> <b_ppw_added_hydrogens>
0

> <b_ppw_treated_metals>
0

> <r_lp_Energy>
16.225072

> <b_ppw_created_disulfur>
0

> <b_lp_Chiralities_Consistent>
1

> <s_lp_Variant>
C20H23NO6S-2

> <b_ppw_deleted_far_waters>
0

> <s_m_job_name>
glide-dock_SP_1

> <r_lp_tautomer_probability>
1

> <b_ppw_ran_protassign>
0

> <i_f3d_flags>
0

> <s_i_glide_gridfile>
glide-grid_1

> <i_i_glide_lignum>
346

> <i_i_glide_rotatable_bonds>
10

> <r_i_glide_ligand_efficiency>
-0.151599

> <r_i_glide_ligand_efficiency_sa>
-0.460345

> <r_i_glide_ligand_efficiency_ln>
-0.979821

> <r_i_glide_gscore>
-4.244785

> <r_i_glide_lipo>
-1.1278

> <r_i_target_temperature>
0

> <r_i_glide_hbond>
-0.48

> <b_ppw_ran_impref>
0

> <r_i_glide_metal>
0

> <r_i_glide_rewards>
-0.731165

> <i_glide_grid_version>
0

> <r_i_glide_evdw>
-29.330009

> <r_i_glide_ecoul>
-10.852416

> <r_i_glide_erotb>
1.200793

> <r_glide_gridbox_xrange>
0

> <r_i_glide_esite>
-0.01225

> <r_glide_gridbox_yrange>
0

> <r_i_glide_emodel>
-54.379259

> <r_glide_gridbox_zrange>
0

> <r_i_glide_energy>
-40.182425

> <r_i_glide_einternal>
2.271833

> <r_glide_gridbox_ligxrange>
0

> <r_glide_gridbox_ligyrange>
0

> <i_i_glide_confnum>
256

> <i_i_glide_posenum>
701

> <r_glide_gridbox_ligzrange>
0

> <r_i_glide_eff_state_penalty>
0.

> <b_glide_receptor>
0

> <r_i_glide_rmsd>
0.337878

> <b_glide_conssat_A_ARG_221_H_hbond_>
0

> <b_glide_conssat_A_ARG_221_HE_hbond_>
0

> <b_glide_conssat_A_TYR_261_HH_hbond_>
1

> <s_m_subgroup_title>
glide-dock_SP_1_pv1

> <s_m_subgroupid>
glide-dock_SP_1_pv1

> <b_m_subgroup_collapsed>
1

> <O>
78

> <CO_1>
172

> <ord_1>
183

> <cl_1>
11

> <ord_2>
3

> <cl_2>
0

> <CO_2>
34

> <cl_3>
2

$$$$
C17H14ClNO7S
  MOLSOFT 07311914272D

 27 28  0  0  0  0  0  0  0  0999 V2000
    8.8571    0.6617    0.0000 C   0  0  0
    7.6447   -0.0383    0.0000 C   0  0  0
    7.6447   -1.4383    0.0000 C   0  0  0
    6.4322   -2.1383    0.0000 C   0  0  0
    6.4322   -3.5383    0.0000 C   0  0  0
    5.2198   -4.2383    0.0000 C   0  0  0
    4.0073   -3.5383    0.0000 C   0  0  0
    4.0073   -2.1383    0.0000 C   0  0  0
    5.2198   -1.4383    0.0000 C   0  0  0
    2.7949   -1.4383    0.0000 N   0  0  0
    1.5825   -2.1383    0.0000 S   0  0  0
    0.3700   -2.8383    0.0000 C   0  0  0
    0.3700   -4.2383    0.0000 C   0  0  0
   -0.8424   -4.9383    0.0000 C   0  0  0
   -2.0548   -4.2383    0.0000 C   0  0  0
   -2.0548   -2.8383    0.0000 C   0  0  0
   -0.8424   -2.1383    0.0000 C   0  0  0
   -3.2673   -2.1383    0.0000 C   0  0  0
   -3.2673   -0.7383    0.0000 O   0  5  0
   -4.4797   -2.8383    0.0000 O   0  0  0
   -3.2673   -4.9383    0.0000 Cl  0  0  0
    0.8825   -0.9259    0.0000 O   0  0  0
    2.2825   -3.3508    0.0000 O   0  0  0
    8.8571   -2.1383    0.0000 O   0  0  0
    8.8571    2.0617    0.0000 C   0  0  0
    7.6447    2.7617    0.0000 O   0  5  0
   10.0695    2.7617    0.0000 O   0  0  0
  1  2  1
  1 25  1
  2  3  1
  3  4  1
  3 24  2
  4  5  1
  4  9  2
  5  6  2
  6  7  1
  7  8  2
  8  9  1
  8 10  1
 10 11  1
 11 12  1
 11 22  2
 11 23  2
 12 13  1
 12 17  2
 13 14  2
 14 15  1
 15 16  2
 15 21  1
 16 17  1
 16 18  1
 18 19  1
 18 20  2
 25 26  1
 25 27  2
M  ZZE   1 10,10,0,0,0,0,0,0;0,17,0,17,0,0,0,0,0,0,0
M  ZZE   2 10,10,0,0,0,0,0,0;0,17,0,17,0,0,0,0,0,0,0
M  ZZE   3 10,10,0,0,0,0,0,0;0,17,0,17,0,0,0,0,0,0,0
M  ZZE   4 10,10,0,0,0,0,0,0;0,17,0,17,0,0,0,0,0,0,0
M  ZZE   5 10,10,0,0,0,0,0,0;0,17,0,17,0,0,0,0,0,0,0
M  ZZE   6 10,10,0,0,0,0,0,0;0,17,0,17,0,0,0,0,0,0,0
M  ZZE   7 10,10,0,0,0,0,0,0;0,17,0,17,0,0,0,0,0,0,0
M  ZZE   8 10,10,0,0,0,0,0,0;0,17,0,17,0,0,0,0,0,0,0
M  ZZE   9 10,10,0,0,0,0,0,0;0,17,0,17,0,0,0,0,0,0,0
M  ZZE  10 10,10,0,0,0,0,0,0;0,3,0,3,0,0,0,0,0,0,0
M  ZZE  11 10,10,0,0,0,0,0,0;0,5,0,5,0,0,0,0,0,0,0
M  ZZE  12 10,10,0,0,0,0,0,0;0,17,0,17,0,0,0,0,0,0,0
M  ZZE  13 10,10,0,0,0,0,0,0;0,17,0,17,0,0,0,0,0,0,0
M  ZZE  14 10,10,0,0,0,0,0,0;0,17,0,17,0,0,0,0,0,0,0
M  ZZE  15 10,10,0,0,0,0,0,0;0,17,0,17,0,0,0,0,0,0,0
M  ZZE  16 10,10,0,0,0,0,0,0;0,17,0,17,0,0,0,0,0,0,0
M  ZZE  17 10,10,0,0,0,0,0,0;0,17,0,17,0,0,0,0,0,0,0
M  ZZE  18 10,10,0,0,0,0,0,0;0,17,0,17,0,0,0,0,0,0,0
M  ZZE  19 10,10,0,0,0,0,0,0;0,4,0,4,0,0,0,0,0,0,0
M  ZZE  20 10,10,0,0,0,0,0,0;0,4,0,4,0,0,0,0,0,0,0
M  ZZE  21 10,10,0,0,0,0,0,0;0,101,0,101,0,0,0,0,0,0,0
M  ZZE  22 10,10,0,0,0,0,0,0;0,4,0,4,0,0,0,0,0,0,0
M  ZZE  23 10,10,0,0,0,0,0,0;0,4,0,4,0,0,0,0,0,0,0
M  ZZE  24 10,10,0,0,0,0,0,0;0,4,0,4,0,0,0,0,0,0,0
M  ZZE  25 10,10,0,0,0,0,0,0;0,17,0,17,0,0,0,0,0,0,0
M  ZZE  26 10,10,0,0,0,0,0,0;0,4,0,4,0,0,0,0,0,0,0
M  ZZE  27 10,10,0,0,0,0,0,0;0,4,0,4,0,0,0,0,0,0,0
M  CHG  2  19  -1  26  -1
M  END
> <L>
0

> <N>
459

> <idnumber>
Z1413958135

> <smiles>
C(CC(c1cccc(c1)NS(c1ccc(c(c1)C(O)=O)[Cl])(=O)=O)=O)C(O)=O

> <r_i_docking_score>
-4.150432

> <s_m_entry_id>
1055

> <s_m_entry_name>
glide-dock_SP_1.459

> <CO>
176

> <ord>
101

> <r_pdb_PDB_CRYST1_alpha>
0

> <cl>
29

> <chiral_flag>
0

> <r_pdb_PDB_CRYST1_beta>
0

> <version>
0

> <r_pdb_PDB_CRYST1_gamma>
0

> <i_pdb_PDB_CRYST1_z>
0

> <i_lp_mmshare_version>
45011

> <s_epik_input>
W09IXUMoPU8pW0NIMl1bQ0gyXUMoPU8pYzFbY0hdW2NIXVtjSF1jKFtjSF0xKVtOSF1TKD1PKSg9TyljMltjSF1bY0hdYyhDbCljKFtjSF0yKUMoPU8pW09IXQ==

> <s_epik_cmdline>
J2VwaWtfcHl0aG9uJywgJy1waCcsICc3LjMnLCAnLXRuJywgJzgnLCAnLW1hJywgJzIwMCcsICctaW1hZScsICc8aW5maWxlLm1hZT4nLCAnLW9tYWUnLCAnPG91dGZpbGUubWFlPic=

> <r_epik_Ionization_Penalty>
  0.2326

> <s_m_Source_File>
ligprep_1.sdf

> <i_m_Source_File_Index>
101

> <r_epik_Ionization_Penalty_Charging>
  0.0005

> <r_epik_Ionization_Penalty_Neutral>
  0.2320

> <s_ppw_entry_id_backup>
0

> <r_epik_State_Penalty>
  0.2227

> <r_epik_Charging_Adjusted_Penalty>
0.223254

> <b_ppw_prepared>
0

> <i_epik_Tot_Q>
-2

> <b_ppw_assigned_bond_orders>
0

> <i_epik_Tot_abs_Q>
2

> <s_lp_Force_Field>
OPLS3e

> <b_ppw_added_hydrogens>
0

> <b_ppw_treated_metals>
0

> <r_lp_Energy>
28.663771

> <b_ppw_created_disulfur>
0

> <b_lp_Chiralities_Consistent>
1

> <s_lp_Variant>
C17H14ClNO7S-1

> <b_ppw_deleted_far_waters>
0

> <s_m_job_name>
glide-dock_SP_1

> <r_lp_tautomer_probability>
1

> <b_ppw_ran_protassign>
0

> <i_f3d_flags>
0

> <s_i_glide_gridfile>
glide-grid_1

> <i_i_glide_lignum>
203

> <i_i_glide_rotatable_bonds>
8

> <r_i_glide_ligand_efficiency>
-0.15372

> <r_i_glide_ligand_efficiency_sa>
-0.461159

> <r_i_glide_ligand_efficiency_ln>
-0.966152

> <r_i_glide_gscore>
-4.373132

> <r_i_glide_lipo>
-0.700614

> <r_i_target_temperature>
0

> <r_i_glide_hbond>
-0.803636

> <b_ppw_ran_impref>
0

> <r_i_glide_metal>
0

> <r_i_glide_rewards>
-0.415075

> <i_glide_grid_version>
0

> <r_i_glide_evdw>
-24.826582

> <r_i_glide_ecoul>
-13.950399

> <r_i_glide_erotb>
0.938183

> <r_glide_gridbox_xrange>
0

> <r_i_glide_esite>
-0.0581

> <r_glide_gridbox_yrange>
0

> <r_i_glide_emodel>
-53.338368

> <r_glide_gridbox_zrange>
0

> <r_i_glide_energy>
-38.776981

> <r_i_glide_einternal>
6.496614

> <r_glide_gridbox_ligxrange>
0

> <r_glide_gridbox_ligyrange>
0

> <i_i_glide_confnum>
144

> <i_i_glide_posenum>
676

> <r_glide_gridbox_ligzrange>
0

> <r_i_glide_eff_state_penalty>
0.2227

> <b_glide_receptor>
0

> <r_i_glide_rmsd>
0.374043

> <b_glide_conssat_A_ARG_221_H_hbond_>
0

> <b_glide_conssat_A_ARG_221_HE_hbond_>
0

> <b_glide_conssat_A_TYR_261_HH_hbond_>
1

> <s_m_subgroup_title>
glide-dock_SP_1_pv1

> <s_m_subgroupid>
glide-dock_SP_1_pv1

> <b_m_subgroup_collapsed>
1

> <O>
79

> <CO_1>
197

> <ord_1>
111

> <cl_1>
5

> <ord_2>
1

> <cl_2>
0

> <CO_2>
27

> <cl_3>
1

$$$$
C10H16N2O4
  MOLSOFT 07311914272D

 16 16  0  0  0  0  0  0  0  0999 V2000
   -2.1000    1.2124    0.0000 C   0  0  0
   -1.4000    0.0000    0.0000 C   0  0  0
   -2.1000   -1.2124    0.0000 O   0  0  0
   -0.0000   -0.0000    0.0000 N   0  0  0
    0.7000    1.2124    0.0000 C   0  0  0
    2.1000    1.2124    0.0000 C   0  0  0
    2.8000    0.0000    0.0000 N   0  0  0
    4.2000    0.0000    0.0000 C   0  0  0
    4.9000   -1.2124    0.0000 O   0  0  0
    4.9000    1.2124    0.0000 C   0  0  0
    6.3000    1.2124    0.0000 C   0  0  0
    7.0000    2.4249    0.0000 C   0  0  0
    6.3000    3.6373    0.0000 O   0  0  0
    8.4000    2.4249    0.0000 O   0  5  0
    2.1000   -1.2124    0.0000 C   0  0  0
    0.7000   -1.2124    0.0000 C   0  0  0
  1  2  1
  2  3  2
  2  4  1
  4  5  1
  4 16  1
  5  6  1
  6  7  1
  7  8  1
  7 15  1
  8  9  2
  8 10  1
 10 11  1
 11 12  1
 12 13  2
 12 14  1
 15 16  1
M  ZZE   1 10,10,0,0,0,0,0,0;0,17,0,17,0,0,0,0,0,0,0
M  ZZE   2 10,10,0,0,0,0,0,0;0,17,0,17,0,0,0,0,0,0,0
M  ZZE   3 10,10,0,0,0,0,0,0;0,4,0,4,0,0,0,0,0,0,0
M  ZZE   4 10,10,0,0,0,0,0,0;0,3,0,3,0,0,0,0,0,0,0
M  ZZE   5 10,10,0,0,0,0,0,0;0,17,0,17,0,0,0,0,0,0,0
M  ZZE   6 10,10,0,0,0,0,0,0;0,17,0,17,0,0,0,0,0,0,0
M  ZZE   7 10,10,0,0,0,0,0,0;0,3,0,3,0,0,0,0,0,0,0
M  ZZE   8 10,10,0,0,0,0,0,0;0,17,0,17,0,0,0,0,0,0,0
M  ZZE   9 10,10,0,0,0,0,0,0;0,4,0,4,0,0,0,0,0,0,0
M  ZZE  10 10,10,0,0,0,0,0,0;0,17,0,17,0,0,0,0,0,0,0
M  ZZE  11 10,10,0,0,0,0,0,0;0,17,0,17,0,0,0,0,0,0,0
M  ZZE  12 10,10,0,0,0,0,0,0;0,17,0,17,0,0,0,0,0,0,0
M  ZZE  13 10,10,0,0,0,0,0,0;0,4,0,4,0,0,0,0,0,0,0
M  ZZE  14 10,10,0,0,0,0,0,0;0,4,0,4,0,0,0,0,0,0,0
M  ZZE  15 10,10,0,0,0,0,0,0;0,17,0,17,0,0,0,0,0,0,0
M  ZZE  16 10,10,0,0,0,0,0,0;0,17,0,17,0,0,0,0,0,0,0
M  CHG  1  14  -1
M  END
> <L>
0

> <N>
1098

> <idnumber>
ZINC386722

> <smiles>
[H]C([H])([H])C(N1C([H])([H])C([H])([H])N(C(C([H])([H])C([H])([H])C([O-])=O)=O)C([H])([H])C1([H])[H])=O

> <r_i_docking_score>
-5.077864

> <s_m_entry_id>
1787

> <s_m_entry_name>
glide-dock_SP_2.122

> <CO>
394

> <ord>
66

> <r_pdb_PDB_CRYST1_alpha>
0

> <cl>
1

> <chiral_flag>
0

> <r_pdb_PDB_CRYST1_beta>
0

> <version>
0

> <r_pdb_PDB_CRYST1_gamma>
0

> <i_pdb_PDB_CRYST1_z>
0

> <i_lp_mmshare_version>
45011

> <s_epik_input>
W0NIM11DKD1PKU4xW0NIMl1bQ0gyXU4oW0NIMl1bQ0gyXTEpQyg9TylbQ0gyXVtDSDJdQyg9TylbT0hd

> <s_epik_cmdline>
J2VwaWtfcHl0aG9uJywgJy1waCcsICc3LjMnLCAnLXRuJywgJzgnLCAnLW1hJywgJzIwMCcsICctaW1hZScsICc8aW5maWxlLm1hZT4nLCAnLW9tYWUnLCAnPG91dGZpbGUubWFlPic=

> <r_epik_Ionization_Penalty>
  0.0023

> <s_m_Source_File>
ligprep_1.sdf

> <i_m_Source_File_Index>
177

> <r_epik_Ionization_Penalty_Charging>
  0.0023

> <r_epik_Ionization_Penalty_Neutral>
  0.0000

> <s_ppw_entry_id_backup>
0

> <r_epik_State_Penalty>
  0.0016

> <r_epik_Charging_Adjusted_Penalty>
0.003878

> <b_ppw_prepared>
0

> <i_epik_Tot_Q>
-1

> <b_ppw_assigned_bond_orders>
0

> <i_epik_Tot_abs_Q>
1

> <s_lp_Force_Field>
OPLS3e

> <b_ppw_added_hydrogens>
0

> <b_ppw_treated_metals>
0

> <r_lp_Energy>
20.255056

> <b_ppw_created_disulfur>
0

> <b_lp_Chiralities_Consistent>
1

> <s_lp_Variant>
C10H16N2O4-1

> <b_ppw_deleted_far_waters>
0

> <s_m_job_name>
glide-dock_SP_2

> <r_lp_tautomer_probability>
0

> <b_ppw_ran_protassign>
0

> <i_f3d_flags>
0

> <s_i_glide_gridfile>
glide-grid_1

> <i_i_glide_lignum>
217

> <i_i_glide_rotatable_bonds>
5

> <r_i_glide_ligand_efficiency>
-0.317367

> <r_i_glide_ligand_efficiency_sa>
-0.799713

> <r_i_glide_ligand_efficiency_ln>
-1.345989

> <r_i_glide_gscore>
-5.079464

> <r_i_glide_lipo>
-0.428412

> <r_i_target_temperature>
0

> <r_i_glide_hbond>
-0.48

> <b_ppw_ran_impref>
0

> <r_i_glide_metal>
0

> <r_i_glide_rewards>
-2.278654

> <i_glide_grid_version>
0

> <r_i_glide_evdw>
-18.381237

> <r_i_glide_ecoul>
-14.986732

> <r_i_glide_erotb>
1.317906

> <r_glide_gridbox_xrange>
0

> <r_i_glide_esite>
-0.043233

> <r_glide_gridbox_yrange>
0

> <r_i_glide_emodel>
-49.659234

> <r_glide_gridbox_zrange>
0

> <r_i_glide_energy>
-33.36797

> <r_i_glide_einternal>
1.734621

> <r_glide_gridbox_ligxrange>
0

> <r_glide_gridbox_ligyrange>
0

> <i_i_glide_confnum>
81

> <i_i_glide_posenum>
494

> <r_glide_gridbox_ligzrange>
0

> <r_i_glide_eff_state_penalty>
0.0016

> <b_glide_receptor>
0

> <r_i_glide_rmsd>
0.31994

> <b_glide_conssat_A_ARG_221_H_hbond_>
0

> <b_glide_conssat_A_ARG_221_HE_hbond_>
0

> <b_glide_conssat_A_TYR_261_HH_hbond_>
1

> <s_m_subgroup_title>
glide-dock_SP_2_pv1

> <s_m_subgroupid>
glide-dock_SP_2_pv1

> <b_m_subgroup_collapsed>
1

> <O>
80

> <CO_1>
3

> <ord_1>
1

> <cl_1>
0

> <ord_2>
0

> <cl_2>
0

> <CO_2>
0

> <cl_3>
0

$$$$
C9H14N2O4
  MOLSOFT 07311914272D

 15 15  0  0  1  0  0  0  0  0999 V2000
   -3.2797   -4.0528    0.0000 N   0  0  0
   -1.9482   -3.6202    0.0000 C   0  0  0
   -0.9078   -4.5570    0.0000 O   0  0  0
   -1.6572   -2.2508    0.0000 C   0  0  1
   -2.5940   -1.2104    0.0000 C   0  0  0
   -1.8940    0.0020    0.0000 C   0  0  0
   -0.5245   -0.2890    0.0000 C   0  0  0
   -0.3782   -1.6814    0.0000 N   0  0  0
    0.8342   -2.3814    0.0000 C   0  0  0
    0.8342   -3.7814    0.0000 O   0  0  0
    2.0467   -1.6814    0.0000 C   0  0  0
    3.2591   -2.3814    0.0000 C   0  0  0
    4.4715   -1.6814    0.0000 C   0  0  0
    4.4715   -0.2814    0.0000 O   0  0  0
    5.6840   -2.3814    0.0000 O   0  5  0
  1  2  1
  2  3  2
  4  2  1  1
  4  5  1
  4  8  1
  5  6  1
  6  7  1
  7  8  1
  8  9  1
  9 10  2
  9 11  1
 11 12  1
 12 13  1
 13 14  2
 13 15  1
M  ZZE   1 10,10,0,0,0,0,0,0;0,3,0,3,0,0,0,0,0,0,0
M  ZZE   2 10,10,0,0,0,0,0,0;0,17,0,17,0,0,0,0,0,0,0
M  ZZE   3 10,10,0,0,0,0,0,0;0,4,0,4,0,0,0,0,0,0,0
M  ZZE   4 10,10,0,0,0,0,0,0;0,17,0,17,0,0,0,0,0,0,0
M  ZZE   5 10,10,0,0,0,0,0,0;0,17,0,17,0,0,0,0,0,0,0
M  ZZE   6 10,10,0,0,0,0,0,0;0,17,0,17,0,0,0,0,0,0,0
M  ZZE   7 10,10,0,0,0,0,0,0;0,17,0,17,0,0,0,0,0,0,0
M  ZZE   8 10,10,0,0,0,0,0,0;0,3,0,3,0,0,0,0,0,0,0
M  ZZE   9 10,10,0,0,0,0,0,0;0,17,0,17,0,0,0,0,0,0,0
M  ZZE  10 10,10,0,0,0,0,0,0;0,4,0,4,0,0,0,0,0,0,0
M  ZZE  11 10,10,0,0,0,0,0,0;0,17,0,17,0,0,0,0,0,0,0
M  ZZE  12 10,10,0,0,0,0,0,0;0,17,0,17,0,0,0,0,0,0,0
M  ZZE  13 10,10,0,0,0,0,0,0;0,17,0,17,0,0,0,0,0,0,0
M  ZZE  14 10,10,0,0,0,0,0,0;0,4,0,4,0,0,0,0,0,0,0
M  ZZE  15 10,10,0,0,0,0,0,0;0,4,0,4,0,0,0,0,0,0,0
M  CHG  1  15  -1
M  END
> <L>
0

> <N>
1073

> <idnumber>
ZINC376528

> <smiles>
[H]C([H])(C([O-])=O)C([H])([H])C(N1C([H])([H])C([H])([H])C([H])([H])[C@]1([H])C(N([H])[H])=O)=O

> <r_i_docking_score>
-4.975019

> <s_m_entry_id>
1812

> <s_m_entry_name>
glide-dock_SP_2.147

> <CO>
0

> <ord>
0

> <r_pdb_PDB_CRYST1_alpha>
0

> <cl>
1

> <chiral_flag>
1

> <r_pdb_PDB_CRYST1_beta>
0

> <version>
0

> <r_pdb_PDB_CRYST1_gamma>
0

> <i_pdb_PDB_CRYST1_z>
0

> <i_lp_mmshare_version>
45011

> <s_epik_input>
W05IMl1DKD1PKVtDQEhdMVtDSDJdW0NIMl1bQ0gyXU4xQyg9TylbQ0gyXVtDSDJdQyg9TylbT0hd

> <s_epik_cmdline>
J2VwaWtfcHl0aG9uJywgJy1waCcsICc3LjMnLCAnLXRuJywgJzgnLCAnLW1hJywgJzIwMCcsICctaW1hZScsICc8aW5maWxlLm1hZT4nLCAnLW9tYWUnLCAnPG91dGZpbGUubWFlPic=

> <r_epik_Ionization_Penalty>
  0.0019

> <s_m_Source_File>
ligprep_1.sdf

> <i_m_Source_File_Index>
192

> <r_epik_Ionization_Penalty_Charging>
  0.0019

> <r_epik_Ionization_Penalty_Neutral>
  0.0000

> <s_ppw_entry_id_backup>
0

> <r_epik_State_Penalty>
  0.0013

> <r_epik_Charging_Adjusted_Penalty>
0.003213

> <b_ppw_prepared>
0

> <i_epik_Tot_Q>
-1

> <b_ppw_assigned_bond_orders>
0

> <i_epik_Tot_abs_Q>
1

> <s_lp_Force_Field>
OPLS3e

> <b_ppw_added_hydrogens>
0

> <b_ppw_treated_metals>
0

> <r_lp_Energy>
11.374253

> <b_ppw_created_disulfur>
0

> <b_lp_Chiralities_Consistent>
1

> <s_lp_Variant>
C9H14N2O4-1

> <b_ppw_deleted_far_waters>
0

> <s_m_job_name>
glide-dock_SP_2

> <r_lp_tautomer_probability>
0

> <b_ppw_ran_protassign>
0

> <i_f3d_flags>
0

> <s_i_glide_gridfile>
glide-grid_1

> <i_i_glide_lignum>
234

> <i_i_glide_rotatable_bonds>
5

> <r_i_glide_ligand_efficiency>
-0.331668

> <r_i_glide_ligand_efficiency_sa>
-0.817963

> <r_i_glide_ligand_efficiency_ln>
-1.34168

> <r_i_glide_gscore>
-4.976319

> <r_i_glide_lipo>
-0.542873

> <r_i_target_temperature>
0

> <r_i_glide_hbond>
-0.568109

> <b_ppw_ran_impref>
0

> <r_i_glide_metal>
0

> <r_i_glide_rewards>
-2.334445

> <i_glide_grid_version>
0

> <r_i_glide_evdw>
-19.369476

> <r_i_glide_ecoul>
-12.964515

> <r_i_glide_erotb>
1.46751

> <r_glide_gridbox_xrange>
0

> <r_i_glide_esite>
-0.085251

> <r_glide_gridbox_yrange>
0

> <r_i_glide_emodel>
-49.101273

> <r_glide_gridbox_zrange>
0

> <r_i_glide_energy>
-32.333991

> <r_i_glide_einternal>
0.619466

> <r_glide_gridbox_ligxrange>
0

> <r_glide_gridbox_ligyrange>
0

> <i_i_glide_confnum>
32

> <i_i_glide_posenum>
711

> <r_glide_gridbox_ligzrange>
0

> <r_i_glide_eff_state_penalty>
0.0013

> <b_glide_receptor>
0

> <r_i_glide_rmsd>
0.286236

> <b_glide_conssat_A_ARG_221_H_hbond_>
0

> <b_glide_conssat_A_ARG_221_HE_hbond_>
0

> <b_glide_conssat_A_TYR_261_HH_hbond_>
1

> <s_m_subgroup_title>
glide-dock_SP_2_pv1

> <s_m_subgroupid>
glide-dock_SP_2_pv1

> <b_m_subgroup_collapsed>
1

> <O>
81

> <CO_1>
7

> <ord_1>
2

> <cl_1>
0

> <ord_2>
0

> <cl_2>
0

> <CO_2>
0

> <cl_3>
0

$$$$
C9H12N2O3S
  MOLSOFT 07311914272D

 15 15  0  0  0  0  0  0  0  0999 V2000
   -2.1000   -1.2124    0.0000 C   0  0  0
   -1.4000    0.0000    0.0000 S   0  0  0
   -0.0000    0.0000    0.0000 C   0  0  0
    0.7000    1.2124    0.0000 N   0  0  0
    2.1000    1.2124    0.0000 C   0  0  0
    2.8000    2.4249    0.0000 C   0  0  0
    2.8000    0.0000    0.0000 C   0  0  0
    4.2000   -0.0000    0.0000 C   0  0  0
    4.9000    1.2124    0.0000 C   0  0  0
    6.3000    1.2124    0.0000 C   0  0  0
    7.0000   -0.0000    0.0000 O   0  0  0
    7.0000    2.4249    0.0000 O   0  5  0
    2.1000   -1.2124    0.0000 C   0  0  0
    2.8000   -2.4249    0.0000 O   0  0  0
    0.7000   -1.2124    0.0000 N   0  0  0
  1  2  1
  2  3  1
  3  4  2
  3 15  1
  4  5  1
  5  6  1
  5  7  2
  7  8  1
  7 13  1
  8  9  1
  9 10  1
 10 11  2
 10 12  1
 13 14  2
 13 15  1
M  ZZE   1 10,10,0,0,0,0,0,0;0,17,0,17,0,0,0,0,0,0,0
M  ZZE   2 10,10,0,0,0,0,0,0;0,5,0,5,0,0,0,0,0,0,0
M  ZZE   3 10,10,0,0,0,0,0,0;0,17,0,17,0,0,0,0,0,0,0
M  ZZE   4 10,10,0,0,0,0,0,0;0,3,0,3,0,0,0,0,0,0,0
M  ZZE   5 10,10,0,0,0,0,0,0;0,17,0,17,0,0,0,0,0,0,0
M  ZZE   6 10,10,0,0,0,0,0,0;0,17,0,17,0,0,0,0,0,0,0
M  ZZE   7 10,10,0,0,0,0,0,0;0,17,0,17,0,0,0,0,0,0,0
M  ZZE   8 10,10,0,0,0,0,0,0;0,17,0,17,0,0,0,0,0,0,0
M  ZZE   9 10,10,0,0,0,0,0,0;0,17,0,17,0,0,0,0,0,0,0
M  ZZE  10 10,10,0,0,0,0,0,0;0,17,0,17,0,0,0,0,0,0,0
M  ZZE  11 10,10,0,0,0,0,0,0;0,4,0,4,0,0,0,0,0,0,0
M  ZZE  12 10,10,0,0,0,0,0,0;0,4,0,4,0,0,0,0,0,0,0
M  ZZE  13 10,10,0,0,0,0,0,0;0,17,0,17,0,0,0,0,0,0,0
M  ZZE  14 10,10,0,0,0,0,0,0;0,4,0,4,0,0,0,0,0,0,0
M  ZZE  15 10,10,0,0,0,0,0,0;0,3,0,3,0,0,0,0,0,0,0
M  CHG  1  12  -1
M  END
> <L>
0

> <N>
992

> <idnumber>
ZINC9517200

> <smiles>
[H]C([H])([H])C1=C(C(N([H])C(=N1)SC([H])([H])[H])=O)C([H])([H])C([H])([H])C([O-])=O

> <r_i_docking_score>
-4.684223

> <s_m_entry_id>
1893

> <s_m_entry_name>
glide-dock_SP_2.228

> <CO>
358

> <ord>
365

> <r_pdb_PDB_CRYST1_alpha>
0

> <cl>
2

> <chiral_flag>
0

> <r_pdb_PDB_CRYST1_beta>
0

> <version>
0

> <r_pdb_PDB_CRYST1_gamma>
0

> <i_pdb_PDB_CRYST1_z>
0

> <i_lp_mmshare_version>
45011

> <s_epik_input>
W0NIM11TYzFuYyhbQ0gzXSljKGMoPU8pW25IXTEpW0NIMl1bQ0gyXUMoPU8pW09IXQ==

> <s_epik_cmdline>
J2VwaWtfcHl0aG9uJywgJy1waCcsICc3LjMnLCAnLXRuJywgJzgnLCAnLW1hJywgJzIwMCcsICctaW1hZScsICc8aW5maWxlLm1hZT4nLCAnLW9tYWUnLCAnPG91dGZpbGUubWFlPic=

> <r_epik_Ionization_Penalty>
  0.0140

> <s_m_Source_File>
ligprep_1.sdf

> <i_m_Source_File_Index>
97

> <r_epik_Ionization_Penalty_Charging>
  0.0140

> <r_epik_Ionization_Penalty_Neutral>
  0.0000

> <s_ppw_entry_id_backup>
0

> <r_epik_State_Penalty>
  0.1637

> <r_epik_Charging_Adjusted_Penalty>
0.177681

> <b_ppw_prepared>
0

> <i_epik_Tot_Q>
-1

> <b_ppw_assigned_bond_orders>
0

> <i_epik_Tot_abs_Q>
1

> <s_lp_Force_Field>
OPLS3e

> <b_ppw_added_hydrogens>
0

> <b_ppw_treated_metals>
0

> <r_lp_Energy>
-2.355451

> <b_ppw_created_disulfur>
0

> <b_lp_Chiralities_Consistent>
1

> <s_lp_Variant>
C9H12N2O3S-1

> <b_ppw_deleted_far_waters>
0

> <s_m_job_name>
glide-dock_SP_2

> <r_lp_tautomer_probability>
1

> <b_ppw_ran_protassign>
0

> <i_f3d_flags>
0

> <s_i_glide_gridfile>
glide-grid_1

> <i_i_glide_lignum>
121

> <i_i_glide_rotatable_bonds>
4

> <r_i_glide_ligand_efficiency>
-0.312282

> <r_i_glide_ligand_efficiency_sa>
-0.770152

> <r_i_glide_ligand_efficiency_ln>
-1.263258

> <r_i_glide_gscore>
-4.847923

> <r_i_glide_lipo>
-0.41445

> <r_i_target_temperature>
0

> <r_i_glide_hbond>
-0.41723

> <b_ppw_ran_impref>
0

> <r_i_glide_metal>
0

> <r_i_glide_rewards>
-2.289632

> <i_glide_grid_version>
0

> <r_i_glide_evdw>
-20.030107

> <r_i_glide_ecoul>
-11.363979

> <r_i_glide_erotb>
0.988251

> <r_glide_gridbox_xrange>
0

> <r_i_glide_esite>
-0.00876

> <r_glide_gridbox_yrange>
0

> <r_i_glide_emodel>
-45.316909

> <r_glide_gridbox_zrange>
0

> <r_i_glide_energy>
-31.394087

> <r_i_glide_einternal>
1.979778

> <r_glide_gridbox_ligxrange>
0

> <r_glide_gridbox_ligyrange>
0

> <i_i_glide_confnum>
3

> <i_i_glide_posenum>
622

> <r_glide_gridbox_ligzrange>
0

> <r_i_glide_eff_state_penalty>
0.1637

> <b_glide_receptor>
0

> <r_i_glide_rmsd>
0.5808

> <b_glide_conssat_A_ARG_221_H_hbond_>
0

> <b_glide_conssat_A_ARG_221_HE_hbond_>
0

> <b_glide_conssat_A_TYR_261_HH_hbond_>
1

> <s_m_subgroup_title>
glide-dock_SP_2_pv1

> <s_m_subgroupid>
glide-dock_SP_2_pv1

> <b_m_subgroup_collapsed>
1

> <O>
82

> <CO_1>
4

> <ord_1>
3

> <cl_1>
0

> <ord_2>
0

> <cl_2>
0

> <CO_2>
0

> <cl_3>
0

$$$$
C5H6N2O2S
  MOLSOFT 07311914272D

 10 10  0  0  0  0  0  0  0  0999 V2000
   -0.6192    3.5345    0.0000 N   0  0  0
   -0.0498    2.2555    0.0000 C   0  0  0
    1.3196    1.9645    0.0000 N   0  0  0
    1.4660    0.5721    0.0000 C   0  0  0
    2.6784   -0.1279    0.0000 C   0  0  0
    3.8908    0.5721    0.0000 C   0  0  0
    3.8908    1.9721    0.0000 O   0  0  0
    5.1033   -0.1279    0.0000 O   0  5  0
    0.1870    0.0027    0.0000 C   0  0  0
   -0.7498    1.0431    0.0000 S   0  0  0
  1  2  1
  2  3  2
  2 10  1
  3  4  1
  4  5  1
  4  9  2
  5  6  1
  6  7  2
  6  8  1
  9 10  1
M  ZZE   1 10,10,0,0,0,0,0,0;0,3,0,3,0,0,0,0,0,0,0
M  ZZE   2 10,10,0,0,0,0,0,0;0,17,0,17,0,0,0,0,0,0,0
M  ZZE   3 10,10,0,0,0,0,0,0;0,3,0,3,0,0,0,0,0,0,0
M  ZZE   4 10,10,0,0,0,0,0,0;0,17,0,17,0,0,0,0,0,0,0
M  ZZE   5 10,10,0,0,0,0,0,0;0,17,0,17,0,0,0,0,0,0,0
M  ZZE   6 10,10,0,0,0,0,0,0;0,17,0,17,0,0,0,0,0,0,0
M  ZZE   7 10,10,0,0,0,0,0,0;0,4,0,4,0,0,0,0,0,0,0
M  ZZE   8 10,10,0,0,0,0,0,0;0,4,0,4,0,0,0,0,0,0,0
M  ZZE   9 10,10,0,0,0,0,0,0;0,17,0,17,0,0,0,0,0,0,0
M  ZZE  10 10,10,0,0,0,0,0,0;0,5,0,5,0,0,0,0,0,0,0
M  CHG  1   8  -1
M  END
> <L>
0

> <N>
822

> <idnumber>
ZINC155667

> <smiles>
[H]c1c(C([H])([H])C([O-])=O)nc(N([H])[H])s1

> <r_i_docking_score>
-4.266119

> <s_m_entry_id>
2063

> <s_m_entry_name>
glide-dock_SP_2.398

> <CO>
314

> <ord>
382

> <r_pdb_PDB_CRYST1_alpha>
0

> <cl>
3

> <chiral_flag>
0

> <r_pdb_PDB_CRYST1_beta>
0

> <version>
0

> <r_pdb_PDB_CRYST1_gamma>
0

> <i_pdb_PDB_CRYST1_z>
0

> <i_lp_mmshare_version>
45011

> <s_epik_input>
W05IMl1jMW5jKFtjSF1zMSlbQ0gyXUMoPU8pW09IXQ==

> <s_epik_cmdline>
J2VwaWtfcHl0aG9uJywgJy1waCcsICc3LjMnLCAnLXRuJywgJzgnLCAnLW1hJywgJzIwMCcsICctaW1hZScsICc8aW5maWxlLm1hZT4nLCAnLW9tYWUnLCAnPG91dGZpbGUubWFlPic=

> <r_epik_Ionization_Penalty>
  0.0306

> <s_m_Source_File>
ligprep_1.sdf

> <i_m_Source_File_Index>
304

> <r_epik_Ionization_Penalty_Charging>
  0.0004

> <r_epik_Ionization_Penalty_Neutral>
  0.0303

> <s_ppw_entry_id_backup>
0

> <r_epik_State_Penalty>
  0.0250

> <r_epik_Charging_Adjusted_Penalty>
0.025321

> <b_ppw_prepared>
0

> <i_epik_Tot_Q>
-1

> <b_ppw_assigned_bond_orders>
0

> <i_epik_Tot_abs_Q>
1

> <s_lp_Force_Field>
OPLS3e

> <b_ppw_added_hydrogens>
0

> <b_ppw_treated_metals>
0

> <r_lp_Energy>
0.15215

> <b_ppw_created_disulfur>
0

> <b_lp_Chiralities_Consistent>
1

> <s_lp_Variant>
C5H6N2O2S-1

> <b_ppw_deleted_far_waters>
0

> <s_m_job_name>
glide-dock_SP_2

> <r_lp_tautomer_probability>
0

> <b_ppw_ran_protassign>
0

> <i_f3d_flags>
0

> <s_i_glide_gridfile>
glide-grid_1

> <i_i_glide_lignum>
357

> <i_i_glide_rotatable_bonds>
2

> <r_i_glide_ligand_efficiency>
-0.426612

> <r_i_glide_ligand_efficiency_sa>
-0.919107

> <r_i_glide_ligand_efficiency_ln>
-1.291751

> <r_i_glide_gscore>
-4.291119

> <r_i_glide_lipo>
-0.282445

> <r_i_target_temperature>
0

> <r_i_glide_hbond>
-0.442332

> <b_ppw_ran_impref>
0

> <r_i_glide_metal>
0

> <r_i_glide_rewards>
-2.600059

> <i_glide_grid_version>
0

> <r_i_glide_evdw>
-14.480547

> <r_i_glide_ecoul>
-9.437929

> <r_i_glide_erotb>
1.212271

> <r_glide_gridbox_xrange>
0

> <r_i_glide_esite>
-0.038838

> <r_glide_gridbox_yrange>
0

> <r_i_glide_emodel>
-34.978792

> <r_glide_gridbox_zrange>
0

> <r_i_glide_energy>
-23.918476

> <r_i_glide_einternal>
0.184302

> <r_glide_gridbox_ligxrange>
0

> <r_glide_gridbox_ligyrange>
0

> <i_i_glide_confnum>
5

> <i_i_glide_posenum>
379

> <r_glide_gridbox_ligzrange>
0

> <r_i_glide_eff_state_penalty>
0.025

> <b_glide_receptor>
0

> <r_i_glide_rmsd>
0.303003

> <b_glide_conssat_A_ARG_221_H_hbond_>
0

> <b_glide_conssat_A_ARG_221_HE_hbond_>
0

> <b_glide_conssat_A_TYR_261_HH_hbond_>
1

> <s_m_subgroup_title>
glide-dock_SP_2_pv1

> <s_m_subgroupid>
glide-dock_SP_2_pv1

> <b_m_subgroup_collapsed>
1

> <O>
83

> <CO_1>
5

> <ord_1>
4

> <cl_1>
0

> <ord_2>
0

> <cl_2>
0

> <CO_2>
0

> <cl_3>
0

$$$$
C11H9NO3
  MOLSOFT 07311914272D

 15 16  0  0  0  0  0  0  0  0999 V2000
    2.4474    1.6775    0.0000 O   0  0  0
    3.6599    0.9775    0.0000 C   0  0  0
    4.8723    1.6775    0.0000 O   0  0  0
    3.6599   -0.4225    0.0000 C   0  0  0
    2.4474   -1.1225    0.0000 N   0  0  0
    2.4474   -2.5225    0.0000 C   0  0  0
    1.2350   -3.2225    0.0000 C   0  0  0
    0.0226   -2.5225    0.0000 C   0  0  0
   -1.1899   -3.2225    0.0000 C   0  0  0
   -2.4023   -2.5225    0.0000 C   0  0  0
   -2.4023   -1.1225    0.0000 C   0  0  0
   -1.1899   -0.4225    0.0000 C   0  0  0
    0.0226   -1.1225    0.0000 C   0  0  0
    1.2350   -0.4225    0.0000 C   0  0  0
    1.2350    0.9775    0.0000 O   0  0  0
  1  2  1
  2  3  2
  2  4  1
  4  5  1
  5  6  1
  6  7  2
  7  8  1
  8  9  2
  9 10  1
 10 11  2
 11 12  1
 13  8  1
 12 13  2
 14  5  1
 13 14  1
 14 15  2
M  ZZE   1 10,10,0,0,0,0,0,0;0,4,0,4,0,0,0,0,0,0,0
M  ZZE   2 10,10,0,0,0,0,0,0;0,17,0,17,0,0,0,0,0,0,0
M  ZZE   3 10,10,0,0,0,0,0,0;0,4,0,4,0,0,0,0,0,0,0
M  ZZE   4 10,10,0,0,0,0,0,0;0,17,0,17,0,0,0,0,0,0,0
M  ZZE   5 10,10,0,0,0,0,0,0;0,3,0,3,0,0,0,0,0,0,0
M  ZZE   6 10,10,0,0,0,0,0,0;0,17,0,17,0,0,0,0,0,0,0
M  ZZE   7 10,10,0,0,0,0,0,0;0,17,0,17,0,0,0,0,0,0,0
M  ZZE   8 10,10,0,0,0,0,0,0;0,17,0,17,0,0,0,0,0,0,0
M  ZZE   9 10,10,0,0,0,0,0,0;0,17,0,17,0,0,0,0,0,0,0
M  ZZE  10 10,10,0,0,0,0,0,0;0,17,0,17,0,0,0,0,0,0,0
M  ZZE  11 10,10,0,0,0,0,0,0;0,17,0,17,0,0,0,0,0,0,0
M  ZZE  12 10,10,0,0,0,0,0,0;0,17,0,17,0,0,0,0,0,0,0
M  ZZE  13 10,10,0,0,0,0,0,0;0,17,0,17,0,0,0,0,0,0,0
M  ZZE  14 10,10,0,0,0,0,0,0;0,17,0,17,0,0,0,0,0,0,0
M  ZZE  15 10,10,0,0,0,0,0,0;0,4,0,4,0,0,0,0,0,0,0
M  END
> <L>
0

> <N>
0

> <idnumber>
CAS: 59139-93-4

> <s_m_entry_id>
0

> <CO>
0

> <ord>
0

> <r_pdb_PDB_CRYST1_alpha>
0

> <cl>
0

> <chiral_flag>
0

> <r_pdb_PDB_CRYST1_beta>
0

> <version>
0

> <r_pdb_PDB_CRYST1_gamma>
0

> <i_pdb_PDB_CRYST1_z>
0

> <i_lp_mmshare_version>
0

> <i_m_Source_File_Index>
0

> <s_ppw_entry_id_backup>
0

> <b_ppw_prepared>
0

> <i_epik_Tot_Q>
0

> <b_ppw_assigned_bond_orders>
0

> <i_epik_Tot_abs_Q>
0

> <b_ppw_added_hydrogens>
0

> <b_ppw_treated_metals>
0

> <b_ppw_created_disulfur>
0

> <b_lp_Chiralities_Consistent>
0

> <b_ppw_deleted_far_waters>
0

> <r_lp_tautomer_probability>
0

> <b_ppw_ran_protassign>
0

> <i_f3d_flags>
0

> <i_i_glide_lignum>
0

> <i_i_glide_rotatable_bonds>
0

> <r_i_target_temperature>
0

> <b_ppw_ran_impref>
0

> <r_i_glide_metal>
0

> <i_glide_grid_version>
0

> <r_glide_gridbox_xrange>
0

> <r_glide_gridbox_yrange>
0

> <r_glide_gridbox_zrange>
0

> <r_glide_gridbox_ligxrange>
0

> <r_glide_gridbox_ligyrange>
0

> <i_i_glide_confnum>
0

> <i_i_glide_posenum>
0

> <r_glide_gridbox_ligzrange>
0

> <b_glide_receptor>
0

> <b_glide_conssat_A_ARG_221_H_hbond_>
0

> <b_glide_conssat_A_ARG_221_HE_hbond_>
0

> <b_glide_conssat_A_TYR_261_HH_hbond_>
0

> <b_m_subgroup_collapsed>
0

> <O>
84

> <CO_1>
0

> <ord_1>
0

> <cl_1>
0

> <ord_2>
0

> <cl_2>
0

> <CO_2>
0

> <cl_3>
0

$$$$
C10H9NO3
  MOLSOFT 07311914272D

 14 15  0  0  0  0  0  0  0  0999 V2000
    2.3094    1.1620    0.0000 C   0  0  0
    3.2462    0.1216    0.0000 C   0  0  0
    4.6462    0.1216    0.0000 C   0  0  0
    5.3462   -1.0909    0.0000 C   0  0  0
    4.6462   -2.3033    0.0000 C   0  0  0
    3.2462   -2.3033    0.0000 C   0  0  0
    2.5462   -1.0909    0.0000 C   0  0  0
    1.1768   -0.7998    0.0000 C   0  0  0
    0.1364   -1.7366    0.0000 O   0  0  0
    1.0304    0.5925    0.0000 N   0  0  0
   -0.1820    1.2925    0.0000 C   0  0  0
   -1.3944    0.5925    0.0000 C   0  0  0
   -1.3944   -0.8075    0.0000 O   0  0  0
   -2.6069    1.2925    0.0000 O   0  0  0
  1  2  1
  2  3  2
  3  4  1
  4  5  2
  5  6  1
  7  2  1
  6  7  2
  7  8  1
  8  9  2
 10  1  1
  8 10  1
 10 11  1
 11 12  1
 12 13  2
 12 14  1
M  ZZE   1 10,10,0,0,0,0,0,0;0,17,0,17,0,0,0,0,0,0,0
M  ZZE   2 10,10,0,0,0,0,0,0;0,17,0,17,0,0,0,0,0,0,0
M  ZZE   3 10,10,0,0,0,0,0,0;0,17,0,17,0,0,0,0,0,0,0
M  ZZE   4 10,10,0,0,0,0,0,0;0,17,0,17,0,0,0,0,0,0,0
M  ZZE   5 10,10,0,0,0,0,0,0;0,17,0,17,0,0,0,0,0,0,0
M  ZZE   6 10,10,0,0,0,0,0,0;0,17,0,17,0,0,0,0,0,0,0
M  ZZE   7 10,10,0,0,0,0,0,0;0,17,0,17,0,0,0,0,0,0,0
M  ZZE   8 10,10,0,0,0,0,0,0;0,17,0,17,0,0,0,0,0,0,0
M  ZZE   9 10,10,0,0,0,0,0,0;0,4,0,4,0,0,0,0,0,0,0
M  ZZE  10 10,10,0,0,0,0,0,0;0,3,0,3,0,0,0,0,0,0,0
M  ZZE  11 10,10,0,0,0,0,0,0;0,17,0,17,0,0,0,0,0,0,0
M  ZZE  12 10,10,0,0,0,0,0,0;0,17,0,17,0,0,0,0,0,0,0
M  ZZE  13 10,10,0,0,0,0,0,0;0,4,0,4,0,0,0,0,0,0,0
M  ZZE  14 10,10,0,0,0,0,0,0;0,4,0,4,0,0,0,0,0,0,0
M  END
> <L>
0

> <N>
0

> <idnumber>
CAS: 39221-42-6

> <s_m_entry_id>
0

> <CO>
0

> <ord>
0

> <r_pdb_PDB_CRYST1_alpha>
0

> <cl>
0

> <chiral_flag>
0

> <r_pdb_PDB_CRYST1_beta>
0

> <version>
0

> <r_pdb_PDB_CRYST1_gamma>
0

> <i_pdb_PDB_CRYST1_z>
0

> <i_lp_mmshare_version>
0

> <i_m_Source_File_Index>
0

> <s_ppw_entry_id_backup>
0

> <b_ppw_prepared>
0

> <i_epik_Tot_Q>
0

> <b_ppw_assigned_bond_orders>
0

> <i_epik_Tot_abs_Q>
0

> <b_ppw_added_hydrogens>
0

> <b_ppw_treated_metals>
0

> <b_ppw_created_disulfur>
0

> <b_lp_Chiralities_Consistent>
0

> <b_ppw_deleted_far_waters>
0

> <r_lp_tautomer_probability>
0

> <b_ppw_ran_protassign>
0

> <i_f3d_flags>
0

> <i_i_glide_lignum>
0

> <i_i_glide_rotatable_bonds>
0

> <r_i_target_temperature>
0

> <b_ppw_ran_impref>
0

> <r_i_glide_metal>
0

> <i_glide_grid_version>
0

> <r_glide_gridbox_xrange>
0

> <r_glide_gridbox_yrange>
0

> <r_glide_gridbox_zrange>
0

> <r_glide_gridbox_ligxrange>
0

> <r_glide_gridbox_ligyrange>
0

> <i_i_glide_confnum>
0

> <i_i_glide_posenum>
0

> <r_glide_gridbox_ligzrange>
0

> <b_glide_receptor>
0

> <b_glide_conssat_A_ARG_221_H_hbond_>
0

> <b_glide_conssat_A_ARG_221_HE_hbond_>
0

> <b_glide_conssat_A_TYR_261_HH_hbond_>
0

> <b_m_subgroup_collapsed>
0

> <O>
85

> <CO_1>
0

> <ord_1>
0

> <cl_1>
0

> <ord_2>
0

> <cl_2>
0

> <CO_2>
0

> <cl_3>
0

$$$$
C10H9N2O3S
  MOLSOFT 07311914272D

 16 17  0  0  0  0  0  0  0  0999 V2000
    0.6477    1.0409    0.0000 C   0  0  0
    1.8601    1.7409    0.0000 N   0  0  0
    3.0725    1.0409    0.0000 C   0  0  0
    3.0725   -0.3591    0.0000 C   0  0  0
    1.8601   -1.0591    0.0000 C   0  0  0
    0.6477   -0.3591    0.0000 N   0  0  0
   -0.5648   -1.0591    0.0000 C   0  0  0
   -0.5648   -2.4591    0.0000 C   0  0  0
    0.6477   -3.1591    0.0000 O   0  5  0
   -1.7772   -3.1591    0.0000 O   0  0  0
    1.8601   -2.4591    0.0000 O   0  0  0
    4.4040   -0.7917    0.0000 C   0  0  0
    5.2269    0.3409    0.0000 C   0  0  0
    6.6269    0.3409    0.0000 C   0  0  0
    4.4040    1.4736    0.0000 S   0  0  0
    4.8366   -2.1232    0.0000 C   0  0  0
  1  2  2
  2  3  1
  3  4  2
  6  1  1
  6  7  1
  7  8  1
  8  9  1
  8 10  2
  5  6  1
  5 11  2
  4  5  1
  4 12  1
 13 14  1
 15  3  1
 13 15  1
 12 13  2
 12 16  1
M  ZZE   1 10,10,0,0,0,0,0,0;0,17,0,17,0,0,0,0,0,0,0
M  ZZE   2 10,10,0,0,0,0,0,0;0,3,0,3,0,0,0,0,0,0,0
M  ZZE   3 10,10,0,0,0,0,0,0;0,17,0,17,0,0,0,0,0,0,0
M  ZZE   4 10,10,0,0,0,0,0,0;0,17,0,17,0,0,0,0,0,0,0
M  ZZE   5 10,10,0,0,0,0,0,0;0,17,0,17,0,0,0,0,0,0,0
M  ZZE   6 10,10,0,0,0,0,0,0;0,3,0,3,0,0,0,0,0,0,0
M  ZZE   7 10,10,0,0,0,0,0,0;0,17,0,17,0,0,0,0,0,0,0
M  ZZE   8 10,10,0,0,0,0,0,0;0,17,0,17,0,0,0,0,0,0,0
M  ZZE   9 10,10,0,0,0,0,0,0;0,4,0,4,0,0,0,0,0,0,0
M  ZZE  10 10,10,0,0,0,0,0,0;0,4,0,4,0,0,0,0,0,0,0
M  ZZE  11 10,10,0,0,0,0,0,0;0,4,0,4,0,0,0,0,0,0,0
M  ZZE  12 10,10,0,0,0,0,0,0;0,17,0,17,0,0,0,0,0,0,0
M  ZZE  13 10,10,0,0,0,0,0,0;0,17,0,17,0,0,0,0,0,0,0
M  ZZE  14 10,10,0,0,0,0,0,0;0,17,0,17,0,0,0,0,0,0,0
M  ZZE  15 10,10,0,0,0,0,0,0;0,5,0,5,0,0,0,0,0,0,0
M  ZZE  16 10,10,0,0,0,0,0,0;0,17,0,17,0,0,0,0,0,0,0
M  CHG  1   9  -1
M  END
> <L>
0

> <N>
0

> <idnumber>
ZINC279657

> <s_m_entry_id>
0

> <CO>
0

> <ord>
0

> <r_pdb_PDB_CRYST1_alpha>
0

> <cl>
0

> <chiral_flag>
0

> <r_pdb_PDB_CRYST1_beta>
0

> <version>
0

> <r_pdb_PDB_CRYST1_gamma>
0

> <i_pdb_PDB_CRYST1_z>
0

> <i_lp_mmshare_version>
0

> <i_m_Source_File_Index>
0

> <s_ppw_entry_id_backup>
0

> <b_ppw_prepared>
0

> <i_epik_Tot_Q>
0

> <b_ppw_assigned_bond_orders>
0

> <i_epik_Tot_abs_Q>
0

> <b_ppw_added_hydrogens>
0

> <b_ppw_treated_metals>
0

> <b_ppw_created_disulfur>
0

> <b_lp_Chiralities_Consistent>
0

> <b_ppw_deleted_far_waters>
0

> <r_lp_tautomer_probability>
0

> <b_ppw_ran_protassign>
0

> <i_f3d_flags>
0

> <i_i_glide_lignum>
0

> <i_i_glide_rotatable_bonds>
0

> <r_i_target_temperature>
0

> <b_ppw_ran_impref>
0

> <r_i_glide_metal>
0

> <i_glide_grid_version>
0

> <r_glide_gridbox_xrange>
0

> <r_glide_gridbox_yrange>
0

> <r_glide_gridbox_zrange>
0

> <r_glide_gridbox_ligxrange>
0

> <r_glide_gridbox_ligyrange>
0

> <i_i_glide_confnum>
0

> <i_i_glide_posenum>
0

> <r_glide_gridbox_ligzrange>
0

> <b_glide_receptor>
0

> <b_glide_conssat_A_ARG_221_H_hbond_>
0

> <b_glide_conssat_A_ARG_221_HE_hbond_>
0

> <b_glide_conssat_A_TYR_261_HH_hbond_>
0

> <b_m_subgroup_collapsed>
0

> <O>
86

> <CO_1>
0

> <ord_1>
0

> <cl_1>
0

> <ord_2>
0

> <cl_2>
0

> <CO_2>
0

> <cl_3>
0

$$$$

  MOLSOFT 07311914270D

  0  0  0  0  0  0  0  0  0  0999 V2000
M  END
> <L>
0

> <N>
0

> <s_m_entry_id>
0

> <CO>
0

> <ord>
0

> <r_pdb_PDB_CRYST1_alpha>
0

> <cl>
0

> <chiral_flag>
0

> <r_pdb_PDB_CRYST1_beta>
0

> <version>
0

> <r_pdb_PDB_CRYST1_gamma>
0

> <i_pdb_PDB_CRYST1_z>
0

> <i_lp_mmshare_version>
0

> <i_m_Source_File_Index>
0

> <s_ppw_entry_id_backup>
0

> <b_ppw_prepared>
0

> <i_epik_Tot_Q>
0

> <b_ppw_assigned_bond_orders>
0

> <i_epik_Tot_abs_Q>
0

> <b_ppw_added_hydrogens>
0

> <b_ppw_treated_metals>
0

> <b_ppw_created_disulfur>
0

> <b_lp_Chiralities_Consistent>
0

> <b_ppw_deleted_far_waters>
0

> <r_lp_tautomer_probability>
0

> <b_ppw_ran_protassign>
0

> <i_f3d_flags>
0

> <i_i_glide_lignum>
0

> <i_i_glide_rotatable_bonds>
0

> <r_i_target_temperature>
0

> <b_ppw_ran_impref>
0

> <r_i_glide_metal>
0

> <i_glide_grid_version>
0

> <r_glide_gridbox_xrange>
0

> <r_glide_gridbox_yrange>
0

> <r_glide_gridbox_zrange>
0

> <r_glide_gridbox_ligxrange>
0

> <r_glide_gridbox_ligyrange>
0

> <i_i_glide_confnum>
0

> <i_i_glide_posenum>
0

> <r_glide_gridbox_ligzrange>
0

> <b_glide_receptor>
0

> <b_glide_conssat_A_ARG_221_H_hbond_>
0

> <b_glide_conssat_A_ARG_221_HE_hbond_>
0

> <b_glide_conssat_A_TYR_261_HH_hbond_>
0

> <b_m_subgroup_collapsed>
0

> <O>
87

> <CO_1>
0

> <ord_1>
0

> <cl_1>
0

> <ord_2>
0

> <cl_2>
0

> <CO_2>
0

> <cl_3>
0

$$$$
