C22H18N4O3
  MOLSOFT 07311911063D

 46 49  0  0  0  0  0  0  0  0999 V2000
   21.4982   44.3357  -15.3945 C   0  0  0
   21.2301   45.8550  -15.5278 C   0  0  0
   20.9625   46.4747  -14.4738 O   0  5  0
   21.3017   46.3575  -16.6731 O   0  0  0
   22.3845   43.7128  -16.4446 N   0  0  0
   21.8705   42.8700  -17.4771 C   0  0  0
   20.4198   42.6677  -17.5906 C   0  0  0
   19.7606   41.7908  -18.4323 C   0  0  0
   20.2721   40.7745  -19.4153 C   0  0  0
   19.5382   40.1440  -20.4998 C   0  0  0
   20.2840   39.2821  -21.1864 N   0  0  0
   21.4433   39.3029  -20.5914 N   0  0  0
   22.5193   38.4588  -21.1234 C   0  0  0
   23.2010   37.5171  -20.1313 C   0  0  0
   24.2923   37.9633  -19.3780 C   0  0  0
   24.9166   37.1016  -18.4782 C   0  0  0
   24.4547   35.7961  -18.3297 C   0  0  0
   23.3679   35.3471  -19.0791 C   0  0  0
   22.7395   36.2066  -19.9795 C   0  0  0
   21.5163   40.1329  -19.5458 C   0  0  0
   22.6795   42.3409  -18.3066 N   0  0  0
   24.0340   42.4958  -18.2276 C   0  0  0
   24.8184   41.8305  -19.1678 C   0  0  0
   26.2082   41.9568  -19.1258 C   0  0  0
   26.8013   42.7512  -18.1432 C   0  0  0
   26.0030   43.4167  -17.2148 C   0  0  0
   24.6118   43.2792  -17.2790 C   0  0  0
   23.7488   44.0046  -16.2762 C   0  0  0
   24.1793   44.7633  -15.4039 O   0  0  0
   20.5570   43.8157  -15.2429 H   0  0  0
   21.9945   44.2123  -14.4294 H   0  0  0
   19.8375   43.2963  -16.9475 H   0  0  0
   18.6811   41.8182  -18.4059 H   0  0  0
   18.5075   40.3332  -20.7595 H   0  0  0
   22.1429   37.8765  -21.9670 H   0  0  0
   23.2629   39.1282  -21.5588 H   0  0  0
   24.6544   38.9733  -19.4944 H   0  0  0
   25.7624   37.4433  -17.8971 H   0  0  0
   24.9426   35.1289  -17.6310 H   0  0  0
   23.0137   34.3334  -18.9616 H   0  0  0
   21.8981   35.8582  -20.5598 H   0  0  0
   22.4253   40.1944  -18.9811 H   0  0  0
   24.3542   41.2188  -19.9242 H   0  0  0
   26.8222   41.4392  -19.8488 H   0  0  0
   27.8774   42.8471  -18.0985 H   0  0  0
   26.4615   44.0229  -16.4499 H   0  0  0
  1  2  1
  1  5  1
  1 30  1
  1 31  1
  2  3  1
  2  4  2
  5  6  1
  5 28  1
  6  7  1
  6 21  2
  8  7  2
  7 32  1
  8  9  1
  8 33  1
  9 10  1
  9 20  2
 10 11  2
 10 34  1
 11 12  1
 12 13  1
 12 20  1
 13 14  1
 13 35  1
 13 36  1
 14 15  1
 14 19  2
 15 16  2
 15 37  1
 16 17  1
 16 38  1
 17 18  2
 17 39  1
 18 19  1
 18 40  1
 19 41  1
 20 42  1
 21 22  1
 22 23  2
 22 27  1
 23 24  1
 23 43  1
 24 25  2
 24 44  1
 25 26  1
 25 45  1
 26 27  2
 26 46  1
 27 28  1
 28 29  2
M  ZZE   1 10,10,0,0,0,0,0,0;0,17,0,17,0,0,0,0,0,0,0
M  ZZE   2 10,10,0,0,0,0,0,0;0,17,0,17,0,0,0,0,0,0,0
M  ZZE   3 10,10,0,0,0,0,0,0;0,4,0,4,0,0,0,0,0,0,0
M  ZZE   4 10,10,0,0,0,0,0,0;0,4,0,4,0,0,0,0,0,0,0
M  ZZE   5 10,10,0,0,0,0,0,0;0,3,0,3,0,0,0,0,0,0,0
M  ZZE   6 10,10,0,0,0,0,0,0;0,17,0,17,0,0,0,0,0,0,0
M  ZZE   7 10,10,0,0,0,0,0,0;0,17,0,17,0,0,0,0,0,0,0
M  ZZE   8 10,10,0,0,0,0,0,0;0,17,0,17,0,0,0,0,0,0,0
M  ZZE   9 10,10,0,0,0,0,0,0;0,17,0,17,0,0,0,0,0,0,0
M  ZZE  10 10,10,0,0,0,0,0,0;0,17,0,17,0,0,0,0,0,0,0
M  ZZE  11 10,10,0,0,0,0,0,0;0,3,0,3,0,0,0,0,0,0,0
M  ZZE  12 10,10,0,0,0,0,0,0;0,3,0,3,0,0,0,0,0,0,0
M  ZZE  13 10,10,0,0,0,0,0,0;0,17,0,17,0,0,0,0,0,0,0
M  ZZE  14 10,10,0,0,0,0,0,0;0,17,0,17,0,0,0,0,0,0,0
M  ZZE  15 10,10,0,0,0,0,0,0;0,17,0,17,0,0,0,0,0,0,0
M  ZZE  16 10,10,0,0,0,0,0,0;0,17,0,17,0,0,0,0,0,0,0
M  ZZE  17 10,10,0,0,0,0,0,0;0,17,0,17,0,0,0,0,0,0,0
M  ZZE  18 10,10,0,0,0,0,0,0;0,17,0,17,0,0,0,0,0,0,0
M  ZZE  19 10,10,0,0,0,0,0,0;0,17,0,17,0,0,0,0,0,0,0
M  ZZE  20 10,10,0,0,0,0,0,0;0,17,0,17,0,0,0,0,0,0,0
M  ZZE  21 10,10,0,0,0,0,0,0;0,3,0,3,0,0,0,0,0,0,0
M  ZZE  22 10,10,0,0,0,0,0,0;0,17,0,17,0,0,0,0,0,0,0
M  ZZE  23 10,10,0,0,0,0,0,0;0,17,0,17,0,0,0,0,0,0,0
M  ZZE  24 10,10,0,0,0,0,0,0;0,17,0,17,0,0,0,0,0,0,0
M  ZZE  25 10,10,0,0,0,0,0,0;0,17,0,17,0,0,0,0,0,0,0
M  ZZE  26 10,10,0,0,0,0,0,0;0,17,0,17,0,0,0,0,0,0,0
M  ZZE  27 10,10,0,0,0,0,0,0;0,17,0,17,0,0,0,0,0,0,0
M  ZZE  28 10,10,0,0,0,0,0,0;0,17,0,17,0,0,0,0,0,0,0
M  ZZE  29 10,10,0,0,0,0,0,0;0,4,0,4,0,0,0,0,0,0,0
M  ZZE  30 10,10,0,0,0,0,0,0;1,1,1,1,1,1,1,1,1,1,1
M  ZZE  31 10,10,0,0,0,0,0,0;1,1,1,1,1,1,1,1,1,1,1
M  ZZE  32 10,10,0,0,0,0,0,0;1,1,1,1,1,1,1,1,1,1,1
M  ZZE  33 10,10,0,0,0,0,0,0;1,1,1,1,1,1,1,1,1,1,1
M  ZZE  34 10,10,0,0,0,0,0,0;1,1,1,1,1,1,1,1,1,1,1
M  ZZE  35 10,10,0,0,0,0,0,0;1,1,1,1,1,1,1,1,1,1,1
M  ZZE  36 10,10,0,0,0,0,0,0;1,1,1,1,1,1,1,1,1,1,1
M  ZZE  37 10,10,0,0,0,0,0,0;1,1,1,1,1,1,1,1,1,1,1
M  ZZE  38 10,10,0,0,0,0,0,0;1,1,1,1,1,1,1,1,1,1,1
M  ZZE  39 10,10,0,0,0,0,0,0;1,1,1,1,1,1,1,1,1,1,1
M  ZZE  40 10,10,0,0,0,0,0,0;1,1,1,1,1,1,1,1,1,1,1
M  ZZE  41 10,10,0,0,0,0,0,0;1,1,1,1,1,1,1,1,1,1,1
M  ZZE  42 10,10,0,0,0,0,0,0;1,1,1,1,1,1,1,1,1,1,1
M  ZZE  43 10,10,0,0,0,0,0,0;1,1,1,1,1,1,1,1,1,1,1
M  ZZE  44 10,10,0,0,0,0,0,0;1,1,1,1,1,1,1,1,1,1,1
M  ZZE  45 10,10,0,0,0,0,0,0;1,1,1,1,1,1,1,1,1,1,1
M  ZZE  46 10,10,0,0,0,0,0,0;1,1,1,1,1,1,1,1,1,1,1
M  CHG  1   3  -1
M  END
> <L>
0

> <N>
0

> <Order>
  

> <idnumber>
Z1436758306

> <smiles>
C(C(O)=O)N1C(C=Cc2cnn(Cc3ccccc3)c2)=Nc2ccccc2C1=O

> <r_i_docking_score>
-5.051572

> <s_m_entry_id>
0

> <CO>
0

> <ord>
0

> <r_pdb_PDB_CRYST1_alpha>
0

> <cl>
0

> <chiral_flag>
0

> <r_pdb_PDB_CRYST1_beta>
0

> <version>
0

> <r_pdb_PDB_CRYST1_gamma>
0

> <i_pdb_PDB_CRYST1_z>
0

> <i_lp_mmshare_version>
0

> <i_m_Source_File_Index>
0

> <s_ppw_entry_id_backup>
0

> <b_ppw_prepared>
0

> <i_epik_Tot_Q>
0

> <b_ppw_assigned_bond_orders>
0

> <i_epik_Tot_abs_Q>
0

> <b_ppw_added_hydrogens>
0

> <b_ppw_treated_metals>
0

> <b_ppw_created_disulfur>
0

> <b_lp_Chiralities_Consistent>
0

> <b_ppw_deleted_far_waters>
0

> <r_lp_tautomer_probability>
0

> <b_ppw_ran_protassign>
0

> <i_f3d_flags>
0

> <i_i_glide_lignum>
0

> <i_i_glide_rotatable_bonds>
0

> <r_i_target_temperature>
0

> <b_ppw_ran_impref>
0

> <r_i_glide_metal>
0

> <i_glide_grid_version>
0

> <r_glide_gridbox_xrange>
0

> <r_glide_gridbox_yrange>
0

> <r_glide_gridbox_zrange>
0

> <r_glide_gridbox_ligxrange>
0

> <r_glide_gridbox_ligyrange>
0

> <i_i_glide_confnum>
0

> <i_i_glide_posenum>
0

> <r_glide_gridbox_ligzrange>
0

> <b_glide_receptor>
0

> <b_glide_conssat_A_ARG_221_H_hbond_>
0

> <b_glide_conssat_A_ARG_221_HE_hbond_>
0

> <b_glide_conssat_A_TYR_261_HH_hbond_>
0

> <b_m_subgroup_collapsed>
0

> <O>
69

> <CO_1>
0

> <ord_1>
0

> <cl_1>
0

> <ord_2>
0

> <cl_2>
0

> <CO_2>
0

> <cl_3>
0

$$$$
C15H13N5O3
  MOLSOFT 07311911063D

 35 37  0  0  0  0  0  0  0  0999 V2000
   17.5225   40.0411  -19.4085 C   0  0  0
   18.8537   40.3761  -19.9114 N   0  0  0
   19.7513   41.2461  -19.3575 C   0  0  0
   19.4244   41.9813  -18.0999 C   0  0  0
   20.2262   42.6608  -17.2084 C   0  0  0
   21.6746   42.8052  -17.2452 C   0  0  0
   22.3950   42.1485  -18.0740 N   0  0  0
   23.7575   42.2961  -18.1275 C   0  0  0
   24.4541   41.5396  -19.0692 C   0  0  0
   25.8421   41.6588  -19.1661 C   0  0  0
   26.5249   42.5355  -18.3199 C   0  0  0
   25.8179   43.2870  -17.3821 C   0  0  0
   24.4272   43.1551  -17.3019 C   0  0  0
   23.6683   43.9606  -16.2787 C   0  0  0
   22.2979   43.6944  -16.3140 N   0  0  0
   21.5214   44.4118  -15.2311 C   0  0  0
   21.1914   45.9000  -15.4883 C   0  0  0
   21.1645   46.2898  -16.6773 O   0  5  0
   20.9766   46.6116  -14.4814 O   0  0  0
   24.1806   44.7593  -15.4913 O   0  0  0
   20.8227   41.2090  -20.2521 C   0  0  0
   20.5320   40.3460  -21.2282 N   0  0  0
   19.2634   39.8021  -21.0340 N   0  0  0
   17.5420   39.9582  -18.3217 H   0  0  0
   17.1748   39.0925  -19.8247 H   0  0  0
   16.8244   40.8307  -19.6938 H   0  0  0
   18.3719   41.9590  -17.8794 H   0  0  0
   19.7778   43.1415  -16.3780 H   0  0  0
   23.9228   40.8607  -19.7196 H   0  0  0
   26.3858   41.0723  -19.8926 H   0  0  0
   27.5999   42.6267  -18.3871 H   0  0  0
   26.3456   43.9581  -16.7211 H   0  0  0
   20.6316   43.8962  -14.8854 H   0  0  0
   22.1316   44.4137  -14.3256 H   0  0  0
   21.7334   41.7746  -20.2324 H   0  0  0
  1  2  1
  1 24  1
  1 25  1
  1 26  1
  2  3  1
  2 23  1
  3  4  1
  3 21  2
  4  5  2
  4 27  1
  5  6  1
  5 28  1
  6  7  2
  6 15  1
  7  8  1
  8  9  2
  8 13  1
  9 10  1
  9 29  1
 10 11  2
 10 30  1
 11 12  1
 11 31  1
 12 13  2
 12 32  1
 13 14  1
 14 15  1
 14 20  2
 15 16  1
 16 17  1
 16 33  1
 16 34  1
 17 18  1
 17 19  2
 21 22  1
 21 35  1
 22 23  2
M  ZZE   1 10,10,0,0,0,0,0,0;0,17,0,17,0,0,0,0,0,0,0
M  ZZE   2 10,10,0,0,0,0,0,0;0,3,0,3,0,0,0,0,0,0,0
M  ZZE   3 10,10,0,0,0,0,0,0;0,17,0,17,0,0,0,0,0,0,0
M  ZZE   4 10,10,0,0,0,0,0,0;0,17,0,17,0,0,0,0,0,0,0
M  ZZE   5 10,10,0,0,0,0,0,0;0,17,0,17,0,0,0,0,0,0,0
M  ZZE   6 10,10,0,0,0,0,0,0;0,17,0,17,0,0,0,0,0,0,0
M  ZZE   7 10,10,0,0,0,0,0,0;0,3,0,3,0,0,0,0,0,0,0
M  ZZE   8 10,10,0,0,0,0,0,0;0,17,0,17,0,0,0,0,0,0,0
M  ZZE   9 10,10,0,0,0,0,0,0;0,17,0,17,0,0,0,0,0,0,0
M  ZZE  10 10,10,0,0,0,0,0,0;0,17,0,17,0,0,0,0,0,0,0
M  ZZE  11 10,10,0,0,0,0,0,0;0,17,0,17,0,0,0,0,0,0,0
M  ZZE  12 10,10,0,0,0,0,0,0;0,17,0,17,0,0,0,0,0,0,0
M  ZZE  13 10,10,0,0,0,0,0,0;0,17,0,17,0,0,0,0,0,0,0
M  ZZE  14 10,10,0,0,0,0,0,0;0,17,0,17,0,0,0,0,0,0,0
M  ZZE  15 10,10,0,0,0,0,0,0;0,3,0,3,0,0,0,0,0,0,0
M  ZZE  16 10,10,0,0,0,0,0,0;0,17,0,17,0,0,0,0,0,0,0
M  ZZE  17 10,10,0,0,0,0,0,0;0,17,0,17,0,0,0,0,0,0,0
M  ZZE  18 10,10,0,0,0,0,0,0;0,4,0,4,0,0,0,0,0,0,0
M  ZZE  19 10,10,0,0,0,0,0,0;0,4,0,4,0,0,0,0,0,0,0
M  ZZE  20 10,10,0,0,0,0,0,0;0,4,0,4,0,0,0,0,0,0,0
M  ZZE  21 10,10,0,0,0,0,0,0;0,17,0,17,0,0,0,0,0,0,0
M  ZZE  22 10,10,0,0,0,0,0,0;0,3,0,3,0,0,0,0,0,0,0
M  ZZE  23 10,10,0,0,0,0,0,0;0,3,0,3,0,0,0,0,0,0,0
M  ZZE  24 10,10,0,0,0,0,0,0;1,1,1,1,1,1,1,1,1,1,1
M  ZZE  25 10,10,0,0,0,0,0,0;1,1,1,1,1,1,1,1,1,1,1
M  ZZE  26 10,10,0,0,0,0,0,0;1,1,1,1,1,1,1,1,1,1,1
M  ZZE  27 10,10,0,0,0,0,0,0;1,1,1,1,1,1,1,1,1,1,1
M  ZZE  28 10,10,0,0,0,0,0,0;1,1,1,1,1,1,1,1,1,1,1
M  ZZE  29 10,10,0,0,0,0,0,0;1,1,1,1,1,1,1,1,1,1,1
M  ZZE  30 10,10,0,0,0,0,0,0;1,1,1,1,1,1,1,1,1,1,1
M  ZZE  31 10,10,0,0,0,0,0,0;1,1,1,1,1,1,1,1,1,1,1
M  ZZE  32 10,10,0,0,0,0,0,0;1,1,1,1,1,1,1,1,1,1,1
M  ZZE  33 10,10,0,0,0,0,0,0;1,1,1,1,1,1,1,1,1,1,1
M  ZZE  34 10,10,0,0,0,0,0,0;1,1,1,1,1,1,1,1,1,1,1
M  ZZE  35 10,10,0,0,0,0,0,0;1,1,1,1,1,1,1,1,1,1,1
M  CHG  1  18  -1
M  END
> <L>
0

> <N>
117

> <Order>
 

> <idnumber>
Z1436757513

> <smiles>
Cn1c(C=CC2=Nc3ccccc3C(N2CC(O)=O)=O)cnn1

> <r_i_docking_score>
-5.183013

> <s_m_entry_id>
587

> <s_m_entry_name>
glide-dock_SP_13.5

> <CO>
21

> <ord>
54

> <r_pdb_PDB_CRYST1_alpha>
0

> <cl>
2

> <chiral_flag>
0

> <r_pdb_PDB_CRYST1_beta>
0

> <version>
0

> <r_pdb_PDB_CRYST1_gamma>
0

> <i_pdb_PDB_CRYST1_z>
0

> <i_lp_mmshare_version>
45011

> <s_epik_input>
bjFuW2NIXWMobjFbQ0gzXSkvW0NIXT1bQ0hdXGMobjIpbihbQ0gyXUMoPU8pW09IXSljKD1PKWMoYzIzKVtjSF1bY0hdW2NIXVtjSF0z

> <s_epik_cmdline>
J2VwaWtfcHl0aG9uJywgJy1waCcsICc3LjMnLCAnLXRuJywgJzgnLCAnLW1hJywgJzIwMCcsICctaW1hZScsICc8aW5maWxlLm1hZT4nLCAnLW9tYWUnLCAnPG91dGZpbGUubWFlPic=

> <r_epik_Ionization_Penalty>
  0.0006

> <s_m_Source_File>
ligprep_enaminecpd5_2.sdf

> <i_m_Source_File_Index>
54

> <r_epik_Ionization_Penalty_Charging>
  0.0006

> <r_epik_Ionization_Penalty_Neutral>
  0.0000

> <s_ppw_entry_id_backup>
0

> <r_epik_State_Penalty>
  0.0004

> <r_epik_Charging_Adjusted_Penalty>
0.00103

> <b_ppw_prepared>
0

> <i_epik_Tot_Q>
-1

> <b_ppw_assigned_bond_orders>
0

> <i_epik_Tot_abs_Q>
1

> <s_lp_Force_Field>
OPLS3e

> <b_ppw_added_hydrogens>
0

> <b_ppw_treated_metals>
0

> <r_lp_Energy>
33.20876

> <b_ppw_created_disulfur>
0

> <b_lp_Chiralities_Consistent>
1

> <s_lp_Variant>
C15H13N5O3-2

> <b_ppw_deleted_far_waters>
0

> <s_m_job_name>
glide-dock_SP_13

> <r_lp_tautomer_probability>
0

> <b_ppw_ran_protassign>
0

> <i_f3d_flags>
0

> <s_i_glide_gridfile>
glide-grid_2

> <i_i_glide_lignum>
112

> <i_i_glide_rotatable_bonds>
4

> <r_i_glide_ligand_efficiency>
-0.225348

> <r_i_glide_ligand_efficiency_sa>
-0.640861

> <r_i_glide_ligand_efficiency_ln>
-1.253299

> <r_i_glide_gscore>
-5.183413

> <r_i_glide_lipo>
-0.695386

> <r_i_target_temperature>
0

> <r_i_glide_hbond>
-0.364667

> <b_ppw_ran_impref>
0

> <r_i_glide_metal>
0

> <r_i_glide_rewards>
-2.331837

> <i_glide_grid_version>
0

> <r_i_glide_evdw>
-26.592548

> <r_i_glide_ecoul>
-8.211251

> <r_i_glide_erotb>
0.769792

> <r_glide_gridbox_xrange>
0

> <r_i_glide_esite>
0.

> <r_glide_gridbox_yrange>
0

> <r_i_glide_emodel>
-47.679612

> <r_glide_gridbox_zrange>
0

> <r_i_glide_energy>
-34.8038

> <r_i_glide_einternal>
2.625679

> <r_glide_gridbox_ligxrange>
0

> <r_glide_gridbox_ligyrange>
0

> <i_i_glide_confnum>
1

> <i_i_glide_posenum>
108

> <r_glide_gridbox_ligzrange>
0

> <r_i_glide_eff_state_penalty>
0.0004

> <b_glide_receptor>
0

> <r_i_glide_rmsd>
0.851999

> <b_glide_conssat_A_ARG_221_H_hbond_>
1

> <b_glide_conssat_A_ARG_221_HE_hbond_>
1

> <b_glide_conssat_A_TYR_261_HH_hbond_>
0

> <s_m_subgroup_title>
glide-dock_SP_13_pv1

> <s_m_subgroupid>
glide-dock_SP_13_pv1

> <b_m_subgroup_collapsed>
0

> <O>
5

> <CO_1>
47

> <ord_1>
41

> <cl_1>
11

> <ord_2>
1

> <cl_2>
1

> <CO_2>
1

> <cl_3>
1

$$$$
C19H18N4O4S
  MOLSOFT 07311911063D

 45 47  0  0  0  0  0  0  0  0999 V2000
   20.0360   39.1053  -24.3030 C   0  0  0
   19.0892   38.5657  -23.2169 C   0  0  0
   18.5480   39.6265  -22.3314 N   0  0  0
   17.3376   40.2405  -22.6212 C   0  0  0
   16.5848   39.7548  -23.8679 C   0  0  0
   16.8463   41.1425  -21.9372 O   0  0  0
   19.3162   40.0362  -21.1850 C   0  0  0
   18.9416   40.9611  -20.3357 N   0  0  0
   19.8315   41.1688  -19.3778 C   0  0  0
   19.4720   42.1922  -18.3603 C   0  0  0
   20.2524   42.9507  -17.5176 C   0  0  0
   21.7095   42.9834  -17.4388 C   0  0  0
   22.4488   42.3571  -18.2766 N   0  0  0
   23.8174   42.4493  -18.2515 C   0  0  0
   24.5335   41.7242  -19.2020 C   0  0  0
   25.9284   41.7994  -19.2257 C   0  0  0
   26.5963   42.6034  -18.2989 C   0  0  0
   25.8677   43.3268  -17.3547 C   0  0  0
   24.4713   43.2358  -17.3478 C   0  0  0
   23.6866   44.0106  -16.3199 C   0  0  0
   22.3139   43.7796  -16.4242 N   0  0  0
   21.5078   44.4312  -15.3266 C   0  0  0
   21.1766   45.9267  -15.5203 C   0  0  0
   21.1300   46.3595  -16.6932 O   0  5  0
   20.9785   46.6002  -14.4840 O   0  0  0
   24.1808   44.7594  -15.4773 O   0  0  0
   20.9559   40.3188  -19.4787 C   0  0  0
   20.8400   39.2809  -20.8741 S   0  0  0
   20.4094   38.2897  -24.9225 H   0  0  0
   19.5354   39.8121  -24.9644 H   0  0  0
   20.9037   39.6042  -23.8691 H   0  0  0
   19.6105   37.8128  -22.6262 H   0  0  0
   18.2948   37.9888  -23.6888 H   0  0  0
   17.2037   39.8045  -24.7629 H   0  0  0
   15.7148   40.3861  -24.0437 H   0  0  0
   16.2237   38.7359  -23.7309 H   0  0  0
   18.4063   42.3490  -18.3015 H   0  0  0
   19.7773   43.6239  -16.8409 H   0  0  0
   24.0121   41.1064  -19.9179 H   0  0  0
   26.4891   41.2372  -19.9584 H   0  0  0
   27.6756   42.6621  -18.3108 H   0  0  0
   26.3836   43.9459  -16.6336 H   0  0  0
   20.5992   43.8828  -15.0868 H   0  0  0
   22.0726   44.3719  -14.3941 H   0  0  0
   21.7944   40.2324  -18.8121 H   0  0  0
  1  2  1
  1 29  1
  1 30  1
  1 31  1
  2  3  1
  2 32  1
  2 33  1
  3  4  1
  3  7  1
  4  5  1
  4  6  2
  5 34  1
  5 35  1
  5 36  1
  7  8  2
  7 28  1
  8  9  1
  9 10  1
  9 27  2
 10 11  2
 10 37  1
 11 12  1
 11 38  1
 12 13  2
 12 21  1
 13 14  1
 14 15  2
 14 19  1
 15 16  1
 15 39  1
 16 17  2
 16 40  1
 17 18  1
 17 41  1
 18 19  2
 18 42  1
 19 20  1
 20 21  1
 20 26  2
 21 22  1
 22 23  1
 22 43  1
 22 44  1
 23 24  1
 23 25  2
 27 28  1
 27 45  1
M  ZZE   1 10,10,0,0,0,0,0,0;0,17,0,17,0,0,0,0,0,0,0
M  ZZE   2 10,10,0,0,0,0,0,0;0,17,0,17,0,0,0,0,0,0,0
M  ZZE   3 10,10,0,0,0,0,0,0;0,3,0,3,0,0,0,0,0,0,0
M  ZZE   4 10,10,0,0,0,0,0,0;0,17,0,17,0,0,0,0,0,0,0
M  ZZE   5 10,10,0,0,0,0,0,0;0,17,0,17,0,0,0,0,0,0,0
M  ZZE   6 10,10,0,0,0,0,0,0;0,4,0,4,0,0,0,0,0,0,0
M  ZZE   7 10,10,0,0,0,0,0,0;0,17,0,17,0,0,0,0,0,0,0
M  ZZE   8 10,10,0,0,0,0,0,0;0,3,0,3,0,0,0,0,0,0,0
M  ZZE   9 10,10,0,0,0,0,0,0;0,17,0,17,0,0,0,0,0,0,0
M  ZZE  10 10,10,0,0,0,0,0,0;0,17,0,17,0,0,0,0,0,0,0
M  ZZE  11 10,10,0,0,0,0,0,0;0,17,0,17,0,0,0,0,0,0,0
M  ZZE  12 10,10,0,0,0,0,0,0;0,17,0,17,0,0,0,0,0,0,0
M  ZZE  13 10,10,0,0,0,0,0,0;0,3,0,3,0,0,0,0,0,0,0
M  ZZE  14 10,10,0,0,0,0,0,0;0,17,0,17,0,0,0,0,0,0,0
M  ZZE  15 10,10,0,0,0,0,0,0;0,17,0,17,0,0,0,0,0,0,0
M  ZZE  16 10,10,0,0,0,0,0,0;0,17,0,17,0,0,0,0,0,0,0
M  ZZE  17 10,10,0,0,0,0,0,0;0,17,0,17,0,0,0,0,0,0,0
M  ZZE  18 10,10,0,0,0,0,0,0;0,17,0,17,0,0,0,0,0,0,0
M  ZZE  19 10,10,0,0,0,0,0,0;0,17,0,17,0,0,0,0,0,0,0
M  ZZE  20 10,10,0,0,0,0,0,0;0,17,0,17,0,0,0,0,0,0,0
M  ZZE  21 10,10,0,0,0,0,0,0;0,3,0,3,0,0,0,0,0,0,0
M  ZZE  22 10,10,0,0,0,0,0,0;0,17,0,17,0,0,0,0,0,0,0
M  ZZE  23 10,10,0,0,0,0,0,0;0,17,0,17,0,0,0,0,0,0,0
M  ZZE  24 10,10,0,0,0,0,0,0;0,4,0,4,0,0,0,0,0,0,0
M  ZZE  25 10,10,0,0,0,0,0,0;0,4,0,4,0,0,0,0,0,0,0
M  ZZE  26 10,10,0,0,0,0,0,0;0,4,0,4,0,0,0,0,0,0,0
M  ZZE  27 10,10,0,0,0,0,0,0;0,17,0,17,0,0,0,0,0,0,0
M  ZZE  28 10,10,0,0,0,0,0,0;0,5,0,5,0,0,0,0,0,0,0
M  ZZE  29 0,0,0,0,0,0,0,0;1,1,1,1,1,1,1,1,1,1,1
M  ZZE  30 0,0,0,0,0,0,0,0;1,1,1,1,1,1,1,1,1,1,1
M  ZZE  31 0,0,0,0,0,0,0,0;1,1,1,1,1,1,1,1,1,1,1
M  ZZE  32 0,0,0,0,0,0,0,0;1,1,1,1,1,1,1,1,1,1,1
M  ZZE  33 0,0,0,0,0,0,0,0;1,1,1,1,1,1,1,1,1,1,1
M  ZZE  34 0,0,0,0,0,0,0,0;1,1,1,1,1,1,1,1,1,1,1
M  ZZE  35 0,0,0,0,0,0,0,0;1,1,1,1,1,1,1,1,1,1,1
M  ZZE  36 0,0,0,0,0,0,0,0;1,1,1,1,1,1,1,1,1,1,1
M  ZZE  37 0,0,0,0,0,0,0,0;1,1,1,1,1,1,1,1,1,1,1
M  ZZE  38 0,0,0,0,0,0,0,0;1,1,1,1,1,1,1,1,1,1,1
M  ZZE  39 0,0,0,0,0,0,0,0;1,1,1,1,1,1,1,1,1,1,1
M  ZZE  40 0,0,0,0,0,0,0,0;1,1,1,1,1,1,1,1,1,1,1
M  ZZE  41 0,0,0,0,0,0,0,0;1,1,1,1,1,1,1,1,1,1,1
M  ZZE  42 0,0,0,0,0,0,0,0;1,1,1,1,1,1,1,1,1,1,1
M  ZZE  43 0,0,0,0,0,0,0,0;1,1,1,1,1,1,1,1,1,1,1
M  ZZE  44 0,0,0,0,0,0,0,0;1,1,1,1,1,1,1,1,1,1,1
M  ZZE  45 0,0,0,0,0,0,0,0;1,1,1,1,1,1,1,1,1,1,1
M  CHG  1  24  -1
M  END
> <L>
0

> <N>
57

> <Order>
 

> <idnumber>
Z1436758310

> <smiles>
CCN(C(C)=O)c1nc(C=CC2=Nc3ccccc3C(N2CC(O)=O)=O)cs1

> <r_i_docking_score>
-4.612489

> <s_m_entry_id>
647

> <s_m_entry_name>
glide-dock_SP_13.65

> <CO>
70

> <ord>
61

> <r_pdb_PDB_CRYST1_alpha>
0

> <cl>
5

> <chiral_flag>
0

> <r_pdb_PDB_CRYST1_beta>
0

> <version>
0

> <r_pdb_PDB_CRYST1_gamma>
0

> <i_pdb_PDB_CRYST1_z>
0

> <i_lp_mmshare_version>
45011

> <s_epik_input>
W0NIM11bQ0gyXU4oQyg9TylbQ0gzXSljMW5jKFtjSF1zMSkvW0NIXT1bQ0hdXGMobjIpbihbQ0gyXUMoPU8pW09IXSljKD1PKWMoYzIzKVtjSF1bY0hdW2NIXVtjSF0z

> <s_epik_cmdline>
J2VwaWtfcHl0aG9uJywgJy1waCcsICc3LjMnLCAnLXRuJywgJzgnLCAnLW1hJywgJzIwMCcsICctaW1hZScsICc8aW5maWxlLm1hZT4nLCAnLW9tYWUnLCAnPG91dGZpbGUubWFlPic=

> <r_epik_Ionization_Penalty>
  0.0006

> <s_m_Source_File>
ligprep_enaminecpd5_2.sdf

> <i_m_Source_File_Index>
61

> <r_epik_Ionization_Penalty_Charging>
  0.0006

> <r_epik_Ionization_Penalty_Neutral>
  0.0000

> <s_ppw_entry_id_backup>
0

> <r_epik_State_Penalty>
  0.0004

> <r_epik_Charging_Adjusted_Penalty>
0.00103

> <b_ppw_prepared>
0

> <i_epik_Tot_Q>
-1

> <b_ppw_assigned_bond_orders>
0

> <i_epik_Tot_abs_Q>
1

> <s_lp_Force_Field>
OPLS3e

> <b_ppw_added_hydrogens>
0

> <b_ppw_treated_metals>
0

> <r_lp_Energy>
50.184108

> <b_ppw_created_disulfur>
0

> <b_lp_Chiralities_Consistent>
1

> <s_lp_Variant>
C19H18N4O4S-2

> <b_ppw_deleted_far_waters>
0

> <s_m_job_name>
glide-dock_SP_13

> <r_lp_tautomer_probability>
0

> <b_ppw_ran_protassign>
0

> <i_f3d_flags>
0

> <s_i_glide_gridfile>
glide-grid_2

> <i_i_glide_lignum>
126

> <i_i_glide_rotatable_bonds>
7

> <r_i_glide_ligand_efficiency>
-0.164732

> <r_i_glide_ligand_efficiency_sa>
-0.500223

> <r_i_glide_ligand_efficiency_ln>
-1.064698

> <r_i_glide_gscore>
-4.612889

> <r_i_glide_lipo>
-0.694471

> <r_i_target_temperature>
0

> <r_i_glide_hbond>
-0.464174

> <b_ppw_ran_impref>
0

> <r_i_glide_metal>
0

> <r_i_glide_rewards>
-1.52806

> <i_glide_grid_version>
0

> <r_i_glide_evdw>
-24.339973

> <r_i_glide_ecoul>
-8.85869

> <r_i_glide_erotb>
0.619649

> <r_glide_gridbox_xrange>
0

> <r_i_glide_esite>
-0.00003

> <r_glide_gridbox_yrange>
0

> <r_i_glide_emodel>
-44.808021

> <r_glide_gridbox_zrange>
0

> <r_i_glide_energy>
-33.198664

> <r_i_glide_einternal>
4.681243

> <r_glide_gridbox_ligxrange>
0

> <r_glide_gridbox_ligyrange>
0

> <i_i_glide_confnum>
12

> <i_i_glide_posenum>
81

> <r_glide_gridbox_ligzrange>
0

> <r_i_glide_eff_state_penalty>
0.0004

> <b_glide_receptor>
0

> <r_i_glide_rmsd>
0.849433

> <b_glide_conssat_A_ARG_221_H_hbond_>
1

> <b_glide_conssat_A_ARG_221_HE_hbond_>
1

> <b_glide_conssat_A_TYR_261_HH_hbond_>
0

> <s_m_subgroup_title>
glide-dock_SP_13_pv1

> <s_m_subgroupid>
glide-dock_SP_13_pv1

> <b_m_subgroup_collapsed>
0

> <O>
65

> <CO_1>
31

> <ord_1>
46

> <cl_1>
13

> <ord_2>
2

> <cl_2>
2

> <CO_2>
3

> <cl_3>
2

$$$$
C17H15N3O5S
  MOLSOFT 07311911063D

 40 42  0  0  0  0  0  0  0  0999 V2000
    2.0623   21.4168   11.3769 C   0  0  0
    3.2371   21.3031   10.3620 C   0  0  0
    3.5264   22.5518    9.4971 C   0  0  0
    4.7811   22.5195    8.6707 C   0  0  0
    5.6158   21.3906    8.6682 C   0  0  0
    6.7759   21.3848    7.8959 C   0  0  0
    7.1133   22.4976    7.1270 C   0  0  0
    6.2858   23.6275    7.1224 C   0  0  0
    5.1227   23.6353    7.8937 C   0  0  0
    6.6131   24.7590    6.3563 N   0  0  0
    7.8877   24.8700    5.1274 S   0  0  0
    9.3807   25.0467    6.1196 C   0  0  0
    9.7507   26.1437    6.8802 C   0  0  0
   10.9318   25.9116    7.4968 N   0  0  0
   11.3954   24.6696    7.1900 C   0  0  0
   10.4444   24.0590    6.3047 C   0  0  0
   10.7188   22.7562    5.8480 C   0  0  0
   11.9045   22.1622    6.2975 C   0  0  0
   12.7573   22.8540    7.1628 C   0  0  0
   12.5243   24.1086    7.6280 N   0  0  0
    7.9559   23.6016    4.3938 O   0  0  0
    7.6943   26.1481    4.4365 O   0  0  0
    2.7542   23.5118    9.5162 O   0  0  0
    0.6554   21.4831   10.7564 C   0  0  0
   -0.2680   21.9005   11.4944 O   0  5  0
    0.5321   21.1111    9.5661 O   0  0  0
    2.2130   22.2684   12.0424 H   0  0  0
    2.0755   20.5368   12.0204 H   0  0  0
    4.1365   21.1176   10.9494 H   0  0  0
    3.1050   20.4278    9.7256 H   0  0  0
    5.3688   20.5230    9.2607 H   0  0  0
    7.4185   20.5166    7.8965 H   0  0  0
    8.0148   22.4826    6.5397 H   0  0  0
    4.4858   24.5092    7.8925 H   0  0  0
    6.1109   25.6133    6.5442 H   0  0  0
    9.2496   27.0912    7.0344 H   0  0  0
   11.3724   26.6025    8.1138 H   0  0  0
   10.0480   22.2373    5.1789 H   0  0  0
   12.1622   21.1642    5.9729 H   0  0  0
   13.6706   22.3889    7.5039 H   0  0  0
  1  2  1
  1 24  1
  1 27  1
  1 28  1
  2  3  1
  2 29  1
  2 30  1
  3  4  1
  3 23  2
  4  5  1
  4  9  2
  5  6  2
  5 31  1
  6  7  1
  6 32  1
  7  8  2
  7 33  1
  8  9  1
  8 10  1
  9 34  1
 10 11  1
 10 35  1
 11 12  1
 11 21  2
 11 22  2
 12 13  2
 12 16  1
 13 14  1
 13 36  1
 14 15  1
 14 37  1
 15 16  2
 15 20  1
 16 17  1
 17 18  2
 17 38  1
 18 19  1
 18 39  1
 19 20  2
 19 40  1
 24 25  1
 24 26  2
M  ZZE   1 10,10,0,0,0,0,0,0;0,17,0,17,0,0,0,0,0,0,0
M  ZZE   2 10,10,0,0,0,0,0,0;0,17,0,17,0,0,0,0,0,0,0
M  ZZE   3 10,10,0,0,0,0,0,0;0,17,0,17,0,0,0,0,0,0,0
M  ZZE   4 10,10,0,0,0,0,0,0;0,17,0,17,0,0,0,0,0,0,0
M  ZZE   5 10,10,0,0,0,0,0,0;0,17,0,17,0,0,0,0,0,0,0
M  ZZE   6 10,10,0,0,0,0,0,0;0,17,0,17,0,0,0,0,0,0,0
M  ZZE   7 10,10,0,0,0,0,0,0;0,17,0,17,0,0,0,0,0,0,0
M  ZZE   8 10,10,0,0,0,0,0,0;0,17,0,17,0,0,0,0,0,0,0
M  ZZE   9 10,10,0,0,0,0,0,0;0,17,0,17,0,0,0,0,0,0,0
M  ZZE  10 10,10,0,0,0,0,0,0;0,3,0,3,0,0,0,0,0,0,0
M  ZZE  11 10,10,0,0,0,0,0,0;0,5,0,5,0,0,0,0,0,0,0
M  ZZE  12 10,10,0,0,0,0,0,0;0,17,0,17,0,0,0,0,0,0,0
M  ZZE  13 10,10,0,0,0,0,0,0;0,17,0,17,0,0,0,0,0,0,0
M  ZZE  14 10,10,0,0,0,0,0,0;0,3,0,3,0,0,0,0,0,0,0
M  ZZE  15 10,10,0,0,0,0,0,0;0,17,0,17,0,0,0,0,0,0,0
M  ZZE  16 10,10,0,0,0,0,0,0;0,17,0,17,0,0,0,0,0,0,0
M  ZZE  17 10,10,0,0,0,0,0,0;0,17,0,17,0,0,0,0,0,0,0
M  ZZE  18 10,10,0,0,0,0,0,0;0,17,0,17,0,0,0,0,0,0,0
M  ZZE  19 10,10,0,0,0,0,0,0;0,17,0,17,0,0,0,0,0,0,0
M  ZZE  20 10,10,0,0,0,0,0,0;0,3,0,3,0,0,0,0,0,0,0
M  ZZE  21 10,10,0,0,0,0,0,0;0,4,0,4,0,0,0,0,0,0,0
M  ZZE  22 10,10,0,0,0,0,0,0;0,4,0,4,0,0,0,0,0,0,0
M  ZZE  23 10,10,0,0,0,0,0,0;0,4,0,4,0,0,0,0,0,0,0
M  ZZE  24 10,10,0,0,0,0,0,0;0,17,0,17,0,0,0,0,0,0,0
M  ZZE  25 10,10,0,0,0,0,0,0;0,4,0,4,0,0,0,0,0,0,0
M  ZZE  26 10,10,0,0,0,0,0,0;0,4,0,4,0,0,0,0,0,0,0
M  ZZE  27 0,0,0,0,0,0,0,0;1,1,1,1,1,1,1,1,1,1,1
M  ZZE  28 0,0,0,0,0,0,0,0;1,1,1,1,1,1,1,1,1,1,1
M  ZZE  29 0,0,0,0,0,0,0,0;1,1,1,1,1,1,1,1,1,1,1
M  ZZE  30 0,0,0,0,0,0,0,0;1,1,1,1,1,1,1,1,1,1,1
M  ZZE  31 0,0,0,0,0,0,0,0;1,1,1,1,1,1,1,1,1,1,1
M  ZZE  32 0,0,0,0,0,0,0,0;1,1,1,1,1,1,1,1,1,1,1
M  ZZE  33 0,0,0,0,0,0,0,0;1,1,1,1,1,1,1,1,1,1,1
M  ZZE  34 0,0,0,0,0,0,0,0;1,1,1,1,1,1,1,1,1,1,1
M  ZZE  35 10,10,0,0,0,0,0,0;2,2,2,2,2,2,2,2,2,2,2
M  ZZE  36 0,0,0,0,0,0,0,0;1,1,1,1,1,1,1,1,1,1,1
M  ZZE  37 10,10,0,0,0,0,0,0;2,2,2,2,2,2,2,2,2,2,2
M  ZZE  38 0,0,0,0,0,0,0,0;1,1,1,1,1,1,1,1,1,1,1
M  ZZE  39 0,0,0,0,0,0,0,0;1,1,1,1,1,1,1,1,1,1,1
M  ZZE  40 0,0,0,0,0,0,0,0;1,1,1,1,1,1,1,1,1,1,1
M  CHG  1  25  -1
M  END
> <L>
0

> <N>
0

> <idnumber>
Z1373577255

> <smiles>
C(CC(c1cccc(c1)NS(c1c[nH]c2c1cccn2)(=O)=O)=O)C(O)=O

> <r_i_docking_score>
-5.231229

> <s_m_entry_id>
0

> <CO>
0

> <ord>
0

> <r_pdb_PDB_CRYST1_alpha>
0

> <cl>
0

> <chiral_flag>
0

> <r_pdb_PDB_CRYST1_beta>
0

> <version>
0

> <r_pdb_PDB_CRYST1_gamma>
0

> <i_pdb_PDB_CRYST1_z>
0

> <i_lp_mmshare_version>
0

> <i_m_Source_File_Index>
0

> <s_ppw_entry_id_backup>
0

> <b_ppw_prepared>
0

> <i_epik_Tot_Q>
0

> <b_ppw_assigned_bond_orders>
0

> <i_epik_Tot_abs_Q>
0

> <b_ppw_added_hydrogens>
0

> <b_ppw_treated_metals>
0

> <b_ppw_created_disulfur>
0

> <b_lp_Chiralities_Consistent>
0

> <b_ppw_deleted_far_waters>
0

> <r_lp_tautomer_probability>
0

> <b_ppw_ran_protassign>
0

> <i_f3d_flags>
0

> <i_i_glide_lignum>
0

> <i_i_glide_rotatable_bonds>
0

> <r_i_target_temperature>
0

> <b_ppw_ran_impref>
0

> <r_i_glide_metal>
0

> <i_glide_grid_version>
0

> <r_glide_gridbox_xrange>
0

> <r_glide_gridbox_yrange>
0

> <r_glide_gridbox_zrange>
0

> <r_glide_gridbox_ligxrange>
0

> <r_glide_gridbox_ligyrange>
0

> <i_i_glide_confnum>
0

> <i_i_glide_posenum>
0

> <r_glide_gridbox_ligzrange>
0

> <b_glide_receptor>
0

> <b_glide_conssat_A_ARG_221_H_hbond_>
0

> <b_glide_conssat_A_ARG_221_HE_hbond_>
0

> <b_glide_conssat_A_TYR_261_HH_hbond_>
0

> <b_m_subgroup_collapsed>
0

> <O>
70

> <CO_1>
0

> <ord_1>
0

> <cl_1>
0

> <ord_2>
0

> <cl_2>
0

> <CO_2>
0

> <cl_3>
0

$$$$
C18H17NO7S
  MOLSOFT 07311911063D

 42 43  0  0  0  0  0  0  0  0999 V2000
   -0.6349   24.9407    2.5031 C   0  0  0
   -1.1500   25.7133    3.7078 C   0  0  0
   -2.5161   25.6767    4.0057 C   0  0  0
   -3.0201   26.3639    5.1086 C   0  0  0
   -2.1619   27.1013    5.9352 C   0  0  0
   -0.7894   27.1520    5.6359 C   0  0  0
   -0.2786   26.4659    4.5309 C   0  0  0
    1.5095   26.5874    4.1857 S   0  0  0
    2.3712   25.6156    5.4120 N   0  0  0
    2.5343   24.2185    5.4648 C   0  0  0
    2.5353   23.4477    4.2959 C   0  0  0
    2.7145   22.0662    4.3669 C   0  0  0
    2.8929   21.4434    5.6016 C   0  0  0
    2.8917   22.2014    6.7799 C   0  0  0
    2.7178   23.5956    6.7043 C   0  0  0
    3.0762   21.5043    8.1110 C   0  0  0
    2.9483   22.3788    9.3859 C   0  0  0
    2.3882   21.6631   10.6553 C   0  0  0
    0.8937   21.2925   10.5386 C   0  0  0
    0.1481   21.6010   11.4967 O   0  5  0
    0.5322   20.7124    9.4946 O   0  0  0
    3.2910   20.2947    8.2172 O   0  0  0
    1.8587   27.9673    4.5397 O   0  0  0
    1.8586   26.0949    2.8510 O   0  0  0
   -2.7020   27.8236    7.1409 C   0  0  0
   -1.8679   28.3741    7.8967 O   0  5  0
   -3.9417   27.8056    7.3173 O   0  0  0
   -1.4184   24.3129    2.0758 H   0  0  0
   -0.2862   25.6164    1.7222 H   0  0  0
    0.1714   24.2659    2.7864 H   0  0  0
   -3.1884   25.1113    3.3780 H   0  0  0
   -4.0788   26.3172    5.3286 H   0  0  0
   -0.1197   27.7230    6.2646 H   0  0  0
    2.5637   26.1226    6.2617 H   0  0  0
    2.4064   23.9145    3.3369 H   0  0  0
    2.7158   21.4774    3.4616 H   0  0  0
    3.0285   20.3726    5.6460 H   0  0  0
    2.7277   24.1977    7.5947 H   0  0  0
    2.2970   23.2312    9.2324 H   0  0  0
    3.9421   22.7722    9.6013 H   0  0  0
    2.5062   22.3278   11.5117 H   0  0  0
    2.9704   20.7730   10.8995 H   0  0  0
  1  2  1
  1 28  1
  1 29  1
  1 30  1
  2  3  2
  2  7  1
  3  4  1
  3 31  1
  4  5  2
  4 32  1
  5  6  1
  5 25  1
  6  7  2
  6 33  1
  7  8  1
  8  9  1
  8 23  2
  8 24  2
  9 10  1
  9 34  1
 10 11  1
 10 15  2
 11 12  2
 11 35  1
 12 13  1
 12 36  1
 13 14  2
 13 37  1
 14 15  1
 14 16  1
 15 38  1
 16 17  1
 16 22  2
 17 18  1
 17 39  1
 17 40  1
 18 19  1
 18 41  1
 18 42  1
 19 20  1
 19 21  2
 25 26  1
 25 27  2
M  ZZE   1 10,10,0,0,0,0,0,0;0,17,0,17,0,0,0,0,0,0,0
M  ZZE   2 10,10,0,0,0,0,0,0;0,17,0,17,0,0,0,0,0,0,0
M  ZZE   3 10,10,0,0,0,0,0,0;0,17,0,17,0,0,0,0,0,0,0
M  ZZE   4 10,10,0,0,0,0,0,0;0,17,0,17,0,0,0,0,0,0,0
M  ZZE   5 10,10,0,0,0,0,0,0;0,17,0,17,0,0,0,0,0,0,0
M  ZZE   6 10,10,0,0,0,0,0,0;0,17,0,17,0,0,0,0,0,0,0
M  ZZE   7 10,10,0,0,0,0,0,0;0,17,0,17,0,0,0,0,0,0,0
M  ZZE   8 10,10,0,0,0,0,0,0;0,5,0,5,0,0,0,0,0,0,0
M  ZZE   9 10,10,0,0,0,0,0,0;0,3,0,3,0,0,0,0,0,0,0
M  ZZE  10 10,10,0,0,0,0,0,0;0,17,0,17,0,0,0,0,0,0,0
M  ZZE  11 10,10,0,0,0,0,0,0;0,17,0,17,0,0,0,0,0,0,0
M  ZZE  12 10,10,0,0,0,0,0,0;0,17,0,17,0,0,0,0,0,0,0
M  ZZE  13 10,10,0,0,0,0,0,0;0,17,0,17,0,0,0,0,0,0,0
M  ZZE  14 10,10,0,0,0,0,0,0;0,17,0,17,0,0,0,0,0,0,0
M  ZZE  15 10,10,0,0,0,0,0,0;0,17,0,17,0,0,0,0,0,0,0
M  ZZE  16 10,10,0,0,0,0,0,0;0,17,0,17,0,0,0,0,0,0,0
M  ZZE  17 10,10,0,0,0,0,0,0;0,17,0,17,0,0,0,0,0,0,0
M  ZZE  18 10,10,0,0,0,0,0,0;0,17,0,17,0,0,0,0,0,0,0
M  ZZE  19 10,10,0,0,0,0,0,0;0,17,0,17,0,0,0,0,0,0,0
M  ZZE  20 10,10,0,0,0,0,0,0;0,4,0,4,0,0,0,0,0,0,0
M  ZZE  21 10,10,0,0,0,0,0,0;0,4,0,4,0,0,0,0,0,0,0
M  ZZE  22 10,10,0,0,0,0,0,0;0,4,0,4,0,0,0,0,0,0,0
M  ZZE  23 10,10,0,0,0,0,0,0;0,4,0,4,0,0,0,0,0,0,0
M  ZZE  24 10,10,0,0,0,0,0,0;0,4,0,4,0,0,0,0,0,0,0
M  ZZE  25 10,10,0,0,0,0,0,0;0,17,0,17,0,0,0,0,0,0,0
M  ZZE  26 10,10,0,0,0,0,0,0;0,4,0,4,0,0,0,0,0,0,0
M  ZZE  27 10,10,0,0,0,0,0,0;0,4,0,4,0,0,0,0,0,0,0
M  ZZE  28 10,10,0,0,0,0,0,0;1,1,1,1,1,1,1,1,1,1,1
M  ZZE  29 10,10,0,0,0,0,0,0;1,1,1,1,1,1,1,1,1,1,1
M  ZZE  30 10,10,0,0,0,0,0,0;1,1,1,1,1,1,1,1,1,1,1
M  ZZE  31 10,10,0,0,0,0,0,0;1,1,1,1,1,1,1,1,1,1,1
M  ZZE  32 10,10,0,0,0,0,0,0;1,1,1,1,1,1,1,1,1,1,1
M  ZZE  33 10,10,0,0,0,0,0,0;1,1,1,1,1,1,1,1,1,1,1
M  ZZE  34 10,10,0,0,0,0,0,0;2,2,2,2,2,2,2,2,2,2,2
M  ZZE  35 10,10,0,0,0,0,0,0;1,1,1,1,1,1,1,1,1,1,1
M  ZZE  36 10,10,0,0,0,0,0,0;1,1,1,1,1,1,1,1,1,1,1
M  ZZE  37 10,10,0,0,0,0,0,0;1,1,1,1,1,1,1,1,1,1,1
M  ZZE  38 10,10,0,0,0,0,0,0;1,1,1,1,1,1,1,1,1,1,1
M  ZZE  39 10,10,0,0,0,0,0,0;1,1,1,1,1,1,1,1,1,1,1
M  ZZE  40 10,10,0,0,0,0,0,0;1,1,1,1,1,1,1,1,1,1,1
M  ZZE  41 10,10,0,0,0,0,0,0;1,1,1,1,1,1,1,1,1,1,1
M  ZZE  42 10,10,0,0,0,0,0,0;1,1,1,1,1,1,1,1,1,1,1
M  CHG  2  20  -1  26  -1
M  END
> <L>
0

> <N>
0

> <idnumber>
Z1413959119

> <smiles>
Cc1ccc(cc1S(Nc1cccc(c1)C(CCC(O)=O)=O)(=O)=O)C(O)=O

> <r_i_docking_score>
-5.243615

> <s_m_entry_id>
0

> <CO>
0

> <ord>
0

> <r_pdb_PDB_CRYST1_alpha>
0

> <cl>
0

> <chiral_flag>
0

> <r_pdb_PDB_CRYST1_beta>
0

> <version>
0

> <r_pdb_PDB_CRYST1_gamma>
0

> <i_pdb_PDB_CRYST1_z>
0

> <i_lp_mmshare_version>
0

> <i_m_Source_File_Index>
0

> <s_ppw_entry_id_backup>
0

> <b_ppw_prepared>
0

> <i_epik_Tot_Q>
0

> <b_ppw_assigned_bond_orders>
0

> <i_epik_Tot_abs_Q>
0

> <b_ppw_added_hydrogens>
0

> <b_ppw_treated_metals>
0

> <b_ppw_created_disulfur>
0

> <b_lp_Chiralities_Consistent>
0

> <b_ppw_deleted_far_waters>
0

> <r_lp_tautomer_probability>
0

> <b_ppw_ran_protassign>
0

> <i_f3d_flags>
0

> <i_i_glide_lignum>
0

> <i_i_glide_rotatable_bonds>
0

> <r_i_target_temperature>
0

> <b_ppw_ran_impref>
0

> <r_i_glide_metal>
0

> <i_glide_grid_version>
0

> <r_glide_gridbox_xrange>
0

> <r_glide_gridbox_yrange>
0

> <r_glide_gridbox_zrange>
0

> <r_glide_gridbox_ligxrange>
0

> <r_glide_gridbox_ligyrange>
0

> <i_i_glide_confnum>
0

> <i_i_glide_posenum>
0

> <r_glide_gridbox_ligzrange>
0

> <b_glide_receptor>
0

> <b_glide_conssat_A_ARG_221_H_hbond_>
0

> <b_glide_conssat_A_ARG_221_HE_hbond_>
0

> <b_glide_conssat_A_TYR_261_HH_hbond_>
0

> <b_m_subgroup_collapsed>
0

> <O>
71

> <CO_1>
0

> <ord_1>
0

> <cl_1>
0

> <ord_2>
0

> <cl_2>
0

> <CO_2>
0

> <cl_3>
0

$$$$
C20H20O4
  MOLSOFT 07311911063D

 43 45  0  0  1  0  0  0  0  0999 V2000
    2.5855   20.9101   12.1905 C   0  0  0
    2.2487   21.8420   11.0145 C   0  0  1
    3.2697   21.6316    9.8453 C   0  0  0
    3.6042   22.8751    8.9909 C   0  0  0
    4.7826   22.7567    8.0599 C   0  0  0
    5.1697   23.8636    7.3035 C   0  0  0
    6.2542   23.7768    6.4433 C   0  0  0
    6.9653   22.5852    6.3250 C   0  0  0
    6.5970   21.4454    7.0723 C   0  0  0
    5.4921   21.5511    7.9460 C   0  0  0
    7.3691   20.1372    6.9372 C   0  0  0
    8.4987   20.0484    6.0976 C   0  0  0
    9.1974   18.8558    5.9756 C   0  0  0
    8.7930   17.7371    6.6837 C   0  0  0
    7.6736   17.7732    7.5365 C   0  0  0
    7.2617   16.5237    8.3076 C   0  0  0
    7.9362   15.2614    7.7589 C   0  0  0
    9.4152   15.5636    7.4960 C   0  0  0
    9.5273   16.5763    6.4968 O   0  0  0
    6.9712   18.9812    7.6511 C   0  0  0
    2.9324   23.9023    9.1026 O   0  0  0
    0.7636   21.6084   10.6282 C   0  0  0
   -0.1041   21.9062   11.4855 O   0  5  0
    0.5325   21.1323    9.4953 O   0  0  0
    2.1333   21.2765   13.1038 H   0  0  0
    2.1926   19.9126   12.0267 H   0  0  0
    3.6562   20.8165   12.3689 H   0  0  0
    2.3249   22.8622   11.3919 H   0  0  0
    4.2131   21.3322   10.2996 H   0  0  0
    2.9719   20.8078    9.1967 H   0  0  0
    4.6276   24.7950    7.3874 H   0  0  0
    6.5487   24.6388    5.8622 H   0  0  0
    7.7995   22.5483    5.6501 H   0  0  0
    5.1871   20.7052    8.5283 H   0  0  0
    8.8342   20.9030    5.5392 H   0  0  0
   10.0573   18.7982    5.3264 H   0  0  0
    7.5536   16.6594    9.3522 H   0  0  0
    6.1779   16.4169    8.2945 H   0  0  0
    7.4666   14.9444    6.8270 H   0  0  0
    7.8340   14.4341    8.4627 H   0  0  0
    9.9359   14.6672    7.1619 H   0  0  0
    9.8964   15.9116    8.4115 H   0  0  0
    6.1166   19.0157    8.3005 H   0  0  0
  2  1  1
  1 25  1
  1 26  1
  1 27  1
  2  3  1
  2 22  1
  2 28  1
  3  4  1
  3 29  1
  3 30  1
  4  5  1
  4 21  2
  5  6  1
  5 10  2
  6  7  2
  6 31  1
  7  8  1
  7 32  1
  8  9  2
  8 33  1
  9 10  1
  9 11  1
 10 34  1
 11 12  1
 11 20  2
 12 13  2
 12 35  1
 13 14  1
 13 36  1
 14 15  2
 14 19  1
 15 16  1
 15 20  1
 16 17  1
 16 37  1
 16 38  1
 17 18  1
 17 39  1
 17 40  1
 18 19  1
 18 41  1
 18 42  1
 20 43  1
 22 23  1
 22 24  2
M  ZZE   1 10,10,0,0,0,0,0,0;0,17,0,17,0,0,0,0,0,0,0
M  ZZE   2 10,10,0,0,0,0,0,0;0,17,0,17,0,0,0,0,0,0,0
M  ZZE   3 10,10,0,0,0,0,0,0;0,17,0,17,0,0,0,0,0,0,0
M  ZZE   4 10,10,0,0,0,0,0,0;0,17,0,17,0,0,0,0,0,0,0
M  ZZE   5 10,10,0,0,0,0,0,0;0,17,0,17,0,0,0,0,0,0,0
M  ZZE   6 10,10,0,0,0,0,0,0;0,17,0,17,0,0,0,0,0,0,0
M  ZZE   7 10,10,0,0,0,0,0,0;0,17,0,17,0,0,0,0,0,0,0
M  ZZE   8 10,10,0,0,0,0,0,0;0,17,0,17,0,0,0,0,0,0,0
M  ZZE   9 10,10,0,0,0,0,0,0;0,17,0,17,0,0,0,0,0,0,0
M  ZZE  10 10,10,0,0,0,0,0,0;0,17,0,17,0,0,0,0,0,0,0
M  ZZE  11 10,10,0,0,0,0,0,0;0,17,0,17,0,0,0,0,0,0,0
M  ZZE  12 10,10,0,0,0,0,0,0;0,17,0,17,0,0,0,0,0,0,0
M  ZZE  13 10,10,0,0,0,0,0,0;0,17,0,17,0,0,0,0,0,0,0
M  ZZE  14 10,10,0,0,0,0,0,0;0,17,0,17,0,0,0,0,0,0,0
M  ZZE  15 10,10,0,0,0,0,0,0;0,17,0,17,0,0,0,0,0,0,0
M  ZZE  16 10,10,0,0,0,0,0,0;0,17,0,17,0,0,0,0,0,0,0
M  ZZE  17 10,10,0,0,0,0,0,0;0,17,0,17,0,0,0,0,0,0,0
M  ZZE  18 10,10,0,0,0,0,0,0;0,17,0,17,0,0,0,0,0,0,0
M  ZZE  19 10,10,0,0,0,0,0,0;0,4,0,4,0,0,0,0,0,0,0
M  ZZE  20 10,10,0,0,0,0,0,0;0,17,0,17,0,0,0,0,0,0,0
M  ZZE  21 10,10,0,0,0,0,0,0;0,4,0,4,0,0,0,0,0,0,0
M  ZZE  22 10,10,0,0,0,0,0,0;0,17,0,17,0,0,0,0,0,0,0
M  ZZE  23 10,10,0,0,0,0,0,0;0,4,0,4,0,0,0,0,0,0,0
M  ZZE  24 10,10,0,0,0,0,0,0;0,4,0,4,0,0,0,0,0,0,0
M  ZZE  25 10,10,0,0,0,0,0,0;1,1,1,1,1,1,1,1,1,1,1
M  ZZE  26 10,10,0,0,0,0,0,0;1,1,1,1,1,1,1,1,1,1,1
M  ZZE  27 10,10,0,0,0,0,0,0;1,1,1,1,1,1,1,1,1,1,1
M  ZZE  28 10,10,0,0,0,0,0,0;1,1,1,1,1,1,1,1,1,1,1
M  ZZE  29 10,10,0,0,0,0,0,0;1,1,1,1,1,1,1,1,1,1,1
M  ZZE  30 10,10,0,0,0,0,0,0;1,1,1,1,1,1,1,1,1,1,1
M  ZZE  31 10,10,0,0,0,0,0,0;1,1,1,1,1,1,1,1,1,1,1
M  ZZE  32 10,10,0,0,0,0,0,0;1,1,1,1,1,1,1,1,1,1,1
M  ZZE  33 10,10,0,0,0,0,0,0;1,1,1,1,1,1,1,1,1,1,1
M  ZZE  34 10,10,0,0,0,0,0,0;1,1,1,1,1,1,1,1,1,1,1
M  ZZE  35 10,10,0,0,0,0,0,0;1,1,1,1,1,1,1,1,1,1,1
M  ZZE  36 10,10,0,0,0,0,0,0;1,1,1,1,1,1,1,1,1,1,1
M  ZZE  37 10,10,0,0,0,0,0,0;1,1,1,1,1,1,1,1,1,1,1
M  ZZE  38 10,10,0,0,0,0,0,0;1,1,1,1,1,1,1,1,1,1,1
M  ZZE  39 10,10,0,0,0,0,0,0;1,1,1,1,1,1,1,1,1,1,1
M  ZZE  40 10,10,0,0,0,0,0,0;1,1,1,1,1,1,1,1,1,1,1
M  ZZE  41 10,10,0,0,0,0,0,0;1,1,1,1,1,1,1,1,1,1,1
M  ZZE  42 10,10,0,0,0,0,0,0;1,1,1,1,1,1,1,1,1,1,1
M  ZZE  43 10,10,0,0,0,0,0,0;1,1,1,1,1,1,1,1,1,1,1
M  CHG  1  23  -1
M  END
> <L>
0

> <N>
0

> <idnumber>
Z2581564325

> <smiles>
CC(CC(c1cccc(c1)c1ccc2c(CCCO2)c1)=O)C(O)=O

> <r_i_docking_score>
-5.284075

> <s_m_entry_id>
0

> <CO>
0

> <ord>
0

> <r_pdb_PDB_CRYST1_alpha>
0

> <cl>
0

> <chiral_flag>
0

> <r_pdb_PDB_CRYST1_beta>
0

> <version>
0

> <r_pdb_PDB_CRYST1_gamma>
0

> <i_pdb_PDB_CRYST1_z>
0

> <i_lp_mmshare_version>
0

> <i_m_Source_File_Index>
0

> <s_ppw_entry_id_backup>
0

> <b_ppw_prepared>
0

> <i_epik_Tot_Q>
0

> <b_ppw_assigned_bond_orders>
0

> <i_epik_Tot_abs_Q>
0

> <b_ppw_added_hydrogens>
0

> <b_ppw_treated_metals>
0

> <b_ppw_created_disulfur>
0

> <b_lp_Chiralities_Consistent>
0

> <b_ppw_deleted_far_waters>
0

> <r_lp_tautomer_probability>
0

> <b_ppw_ran_protassign>
0

> <i_f3d_flags>
0

> <i_i_glide_lignum>
0

> <i_i_glide_rotatable_bonds>
0

> <r_i_target_temperature>
0

> <b_ppw_ran_impref>
0

> <r_i_glide_metal>
0

> <i_glide_grid_version>
0

> <r_glide_gridbox_xrange>
0

> <r_glide_gridbox_yrange>
0

> <r_glide_gridbox_zrange>
0

> <r_glide_gridbox_ligxrange>
0

> <r_glide_gridbox_ligyrange>
0

> <i_i_glide_confnum>
0

> <i_i_glide_posenum>
0

> <r_glide_gridbox_ligzrange>
0

> <b_glide_receptor>
0

> <b_glide_conssat_A_ARG_221_H_hbond_>
0

> <b_glide_conssat_A_ARG_221_HE_hbond_>
0

> <b_glide_conssat_A_TYR_261_HH_hbond_>
0

> <b_m_subgroup_collapsed>
0

> <O>
72

> <CO_1>
0

> <ord_1>
0

> <cl_1>
0

> <ord_2>
0

> <cl_2>
0

> <CO_2>
0

> <cl_3>
0

$$$$
C18H19NO7S2
  MOLSOFT 07311911063D

 46 47  0  0  0  0  0  0  0  0999 V2000
    8.9297   25.7313    7.2166 C   0  0  0
    9.3578   24.4192    6.7123 N   0  0  0
   10.7098   24.0159    6.9616 C   0  0  0
   11.1338   22.7020    6.6968 C   0  0  0
   12.4417   22.3153    6.9845 C   0  0  0
   13.3328   23.2303    7.5346 C   0  0  0
   12.9351   24.5411    7.7811 C   0  0  0
   11.6325   24.9352    7.4977 C   0  0  0
   14.9991   22.7091    7.9406 S   0  0  0
   15.4375   23.6647    9.5010 C   0  0  0
   14.9307   21.2847    8.2957 O   0  0  0
   15.8758   23.1661    6.8587 O   0  0  0
    8.0910   23.5766    5.7210 S   0  0  0
    6.7095   23.2893    6.8438 C   0  0  0
    6.6047   22.0742    7.5265 C   0  0  0
    5.5289   21.8520    8.3897 C   0  0  0
    4.5593   22.8545    8.5705 C   0  0  0
    4.6804   24.0703    7.8822 C   0  0  0
    5.7497   24.2835    7.0213 C   0  0  0
    3.3864   22.6511    9.4964 C   0  0  0
    3.2835   21.2874   10.2121 C   0  0  0
    2.1281   21.1848   11.2624 C   0  0  0
    0.6871   21.1952   10.7011 C   0  0  0
    0.5323   20.8828    9.4975 O   0  5  0
   -0.2278   21.5121   11.4968 O   0  0  0
    2.5342   23.5118    9.6968 O   0  0  0
    8.5499   22.2613    5.2656 O   0  0  0
    7.6251   24.5598    4.7358 O   0  0  0
    9.0912   25.8142    8.2926 H   0  0  0
    9.4735   26.5352    6.7193 H   0  0  0
    7.8743   25.9258    7.0411 H   0  0  0
   10.4577   21.9784    6.2959 H   0  0  0
   12.7577   21.3002    6.7926 H   0  0  0
   13.6294   25.2529    8.2028 H   0  0  0
   11.3338   25.9506    7.7075 H   0  0  0
   16.3692   23.2676    9.8961 H   0  0  0
   15.5671   24.7180    9.2561 H   0  0  0
   14.6404   23.5390   10.2327 H   0  0  0
    7.3521   21.3064    7.3862 H   0  0  0
    5.4516   20.9113    8.9136 H   0  0  0
    3.9410   24.8470    8.0162 H   0  0  0
    5.8340   25.2209    6.4906 H   0  0  0
    4.2228   21.1344   10.7431 H   0  0  0
    3.2080   20.4806    9.4829 H   0  0  0
    2.2306   21.9741   12.0086 H   0  0  0
    2.2389   20.2618   11.8244 H   0  0  0
  1  2  1
  1 29  1
  1 30  1
  1 31  1
  2  3  1
  2 13  1
  3  4  1
  3  8  2
  4  5  2
  4 32  1
  5  6  1
  5 33  1
  6  7  2
  6  9  1
  7  8  1
  7 34  1
  8 35  1
  9 10  1
  9 11  2
  9 12  2
 10 36  1
 10 37  1
 10 38  1
 13 14  1
 13 27  2
 13 28  2
 14 15  1
 14 19  2
 15 16  2
 15 39  1
 16 17  1
 16 40  1
 17 18  2
 17 20  1
 18 19  1
 18 41  1
 19 42  1
 20 21  1
 20 26  2
 21 22  1
 21 43  1
 21 44  1
 22 23  1
 22 45  1
 22 46  1
 23 24  1
 23 25  2
M  ZZE   1 10,10,0,0,0,0,0,0;0,17,0,17,0,0,0,0,0,0,0
M  ZZE   2 10,10,0,0,0,0,0,0;0,3,0,3,0,0,0,0,0,0,0
M  ZZE   3 10,10,0,0,0,0,0,0;0,17,0,17,0,0,0,0,0,0,0
M  ZZE   4 10,10,0,0,0,0,0,0;0,17,0,17,0,0,0,0,0,0,0
M  ZZE   5 10,10,0,0,0,0,0,0;0,17,0,17,0,0,0,0,0,0,0
M  ZZE   6 10,10,0,0,0,0,0,0;0,17,0,17,0,0,0,0,0,0,0
M  ZZE   7 10,10,0,0,0,0,0,0;0,17,0,17,0,0,0,0,0,0,0
M  ZZE   8 10,10,0,0,0,0,0,0;0,17,0,17,0,0,0,0,0,0,0
M  ZZE   9 10,10,0,0,0,0,0,0;0,5,0,5,0,0,0,0,0,0,0
M  ZZE  10 10,10,0,0,0,0,0,0;0,17,0,17,0,0,0,0,0,0,0
M  ZZE  11 10,10,0,0,0,0,0,0;0,4,0,4,0,0,0,0,0,0,0
M  ZZE  12 10,10,0,0,0,0,0,0;0,4,0,4,0,0,0,0,0,0,0
M  ZZE  13 10,10,0,0,0,0,0,0;0,5,0,5,0,0,0,0,0,0,0
M  ZZE  14 10,10,0,0,0,0,0,0;0,17,0,17,0,0,0,0,0,0,0
M  ZZE  15 10,10,0,0,0,0,0,0;0,17,0,17,0,0,0,0,0,0,0
M  ZZE  16 10,10,0,0,0,0,0,0;0,17,0,17,0,0,0,0,0,0,0
M  ZZE  17 10,10,0,0,0,0,0,0;0,17,0,17,0,0,0,0,0,0,0
M  ZZE  18 10,10,0,0,0,0,0,0;0,17,0,17,0,0,0,0,0,0,0
M  ZZE  19 10,10,0,0,0,0,0,0;0,17,0,17,0,0,0,0,0,0,0
M  ZZE  20 10,10,0,0,0,0,0,0;0,17,0,17,0,0,0,0,0,0,0
M  ZZE  21 10,10,0,0,0,0,0,0;0,17,0,17,0,0,0,0,0,0,0
M  ZZE  22 10,10,0,0,0,0,0,0;0,17,0,17,0,0,0,0,0,0,0
M  ZZE  23 10,10,0,0,0,0,0,0;0,17,0,17,0,0,0,0,0,0,0
M  ZZE  24 10,10,0,0,0,0,0,0;0,4,0,4,0,0,0,0,0,0,0
M  ZZE  25 10,10,0,0,0,0,0,0;0,4,0,4,0,0,0,0,0,0,0
M  ZZE  26 10,10,0,0,0,0,0,0;0,4,0,4,0,0,0,0,0,0,0
M  ZZE  27 10,10,0,0,0,0,0,0;0,4,0,4,0,0,0,0,0,0,0
M  ZZE  28 10,10,0,0,0,0,0,0;0,4,0,4,0,0,0,0,0,0,0
M  ZZE  29 10,10,0,0,0,0,0,0;1,1,1,1,1,1,1,1,1,1,1
M  ZZE  30 10,10,0,0,0,0,0,0;1,1,1,1,1,1,1,1,1,1,1
M  ZZE  31 10,10,0,0,0,0,0,0;1,1,1,1,1,1,1,1,1,1,1
M  ZZE  32 10,10,0,0,0,0,0,0;1,1,1,1,1,1,1,1,1,1,1
M  ZZE  33 10,10,0,0,0,0,0,0;1,1,1,1,1,1,1,1,1,1,1
M  ZZE  34 10,10,0,0,0,0,0,0;1,1,1,1,1,1,1,1,1,1,1
M  ZZE  35 10,10,0,0,0,0,0,0;1,1,1,1,1,1,1,1,1,1,1
M  ZZE  36 10,10,0,0,0,0,0,0;1,1,1,1,1,1,1,1,1,1,1
M  ZZE  37 10,10,0,0,0,0,0,0;1,1,1,1,1,1,1,1,1,1,1
M  ZZE  38 10,10,0,0,0,0,0,0;1,1,1,1,1,1,1,1,1,1,1
M  ZZE  39 10,10,0,0,0,0,0,0;1,1,1,1,1,1,1,1,1,1,1
M  ZZE  40 10,10,0,0,0,0,0,0;1,1,1,1,1,1,1,1,1,1,1
M  ZZE  41 10,10,0,0,0,0,0,0;1,1,1,1,1,1,1,1,1,1,1
M  ZZE  42 10,10,0,0,0,0,0,0;1,1,1,1,1,1,1,1,1,1,1
M  ZZE  43 10,10,0,0,0,0,0,0;1,1,1,1,1,1,1,1,1,1,1
M  ZZE  44 10,10,0,0,0,0,0,0;1,1,1,1,1,1,1,1,1,1,1
M  ZZE  45 10,10,0,0,0,0,0,0;1,1,1,1,1,1,1,1,1,1,1
M  ZZE  46 10,10,0,0,0,0,0,0;1,1,1,1,1,1,1,1,1,1,1
M  CHG  1  24  -1
M  END
> <L>
0

> <N>
0

> <idnumber>
Z1359460504

> <smiles>
CN(c1ccc(cc1)S(C)(=O)=O)S(c1ccc(cc1)C(CCC(O)=O)=O)(=O)=O

> <r_i_docking_score>
-5.323028

> <s_m_entry_id>
0

> <CO>
0

> <ord>
0

> <r_pdb_PDB_CRYST1_alpha>
0

> <cl>
0

> <chiral_flag>
0

> <r_pdb_PDB_CRYST1_beta>
0

> <version>
0

> <r_pdb_PDB_CRYST1_gamma>
0

> <i_pdb_PDB_CRYST1_z>
0

> <i_lp_mmshare_version>
0

> <i_m_Source_File_Index>
0

> <s_ppw_entry_id_backup>
0

> <b_ppw_prepared>
0

> <i_epik_Tot_Q>
0

> <b_ppw_assigned_bond_orders>
0

> <i_epik_Tot_abs_Q>
0

> <b_ppw_added_hydrogens>
0

> <b_ppw_treated_metals>
0

> <b_ppw_created_disulfur>
0

> <b_lp_Chiralities_Consistent>
0

> <b_ppw_deleted_far_waters>
0

> <r_lp_tautomer_probability>
0

> <b_ppw_ran_protassign>
0

> <i_f3d_flags>
0

> <i_i_glide_lignum>
0

> <i_i_glide_rotatable_bonds>
0

> <r_i_target_temperature>
0

> <b_ppw_ran_impref>
0

> <r_i_glide_metal>
0

> <i_glide_grid_version>
0

> <r_glide_gridbox_xrange>
0

> <r_glide_gridbox_yrange>
0

> <r_glide_gridbox_zrange>
0

> <r_glide_gridbox_ligxrange>
0

> <r_glide_gridbox_ligyrange>
0

> <i_i_glide_confnum>
0

> <i_i_glide_posenum>
0

> <r_glide_gridbox_ligzrange>
0

> <b_glide_receptor>
0

> <b_glide_conssat_A_ARG_221_H_hbond_>
0

> <b_glide_conssat_A_ARG_221_HE_hbond_>
0

> <b_glide_conssat_A_TYR_261_HH_hbond_>
0

> <b_m_subgroup_collapsed>
0

> <O>
73

> <CO_1>
0

> <ord_1>
0

> <cl_1>
0

> <ord_2>
0

> <cl_2>
0

> <CO_2>
0

> <cl_3>
0

$$$$
C19H21N3O6S
  MOLSOFT 07311911063D

 49 51  0  0  0  0  0  0  0  0999 V2000
   15.4644   23.9892    9.4910 C   0  0  0
   15.1429   25.4086    9.0630 C   0  0  0
   13.7146   25.3313    8.5240 C   0  0  0
   13.6169   23.9297    8.0877 N   0  0  0
   14.7835   23.1195    8.4413 C   0  0  0
   12.5658   23.3676    7.3922 C   0  0  0
   11.4000   24.2346    7.0891 C   0  0  0
   10.2542   23.8922    6.3441 C   0  0  0
    9.3929   25.0532    6.3306 C   0  0  0
   10.0652   26.0209    7.0740 C   0  0  0
   11.2312   25.5119    7.4970 N   0  0  0
    7.7766   25.2064    5.5356 S   0  0  0
    6.6355   25.0276    6.8833 N   0  0  0
    6.2379   23.8128    7.4649 C   0  0  0
    7.0087   22.6543    7.3032 C   0  0  0
    6.6129   21.4596    7.9005 C   0  0  0
    5.4490   21.4101    8.6652 C   0  0  0
    4.6679   22.5658    8.8305 C   0  0  0
    5.0679   23.7649    8.2236 C   0  0  0
    3.4141   22.5365    9.6559 C   0  0  0
    3.0928   21.2058   10.3709 C   0  0  0
    1.9208   21.2474   11.3888 C   0  0  0
    0.5327   21.4094   10.7501 C   0  0  0
   -0.3875   21.8225   11.4929 O   0  5  0
    0.4185   21.1127    9.5393 O   0  0  0
    2.6703   23.5116    9.7959 O   0  0  0
    7.6007   24.0669    4.6280 O   0  0  0
    7.6590   26.5923    5.0715 O   0  0  0
   12.5642   22.1880    7.0312 O   0  0  0
   15.0339   23.8027   10.4750 H   0  0  0
   16.5286   23.7816    9.5551 H   0  0  0
   15.8247   25.7134    8.2663 H   0  0  0
   15.2450   26.1380    9.8672 H   0  0  0
   13.6138   26.0623    7.7189 H   0  0  0
   13.0248   25.5117    9.3463 H   0  0  0
   14.5215   22.1455    8.8527 H   0  0  0
   15.4255   23.0101    7.5661 H   0  0  0
   10.0562   22.9410    5.8712 H   0  0  0
    9.7937   27.0368    7.3335 H   0  0  0
   11.8986   26.0254    8.0654 H   0  0  0
    6.2431   25.8839    7.2479 H   0  0  0
    7.9126   22.6827    6.7211 H   0  0  0
    7.2123   20.5706    7.7759 H   0  0  0
    5.1562   20.4793    9.1266 H   0  0  0
    4.4762   24.6601    8.3514 H   0  0  0
    3.9861   20.9317   10.9320 H   0  0  0
    2.9369   20.4124    9.6412 H   0  0  0
    2.0884   22.0264   12.1363 H   0  0  0
    1.8992   20.3117   11.9444 H   0  0  0
  1  2  1
  1  5  1
  1 30  1
  1 31  1
  2  3  1
  2 32  1
  2 33  1
  3  4  1
  3 34  1
  3 35  1
  4  5  1
  4  6  1
  5 36  1
  5 37  1
  6  7  1
  6 29  2
  7  8  2
  7 11  1
  8  9  1
  8 38  1
  9 10  2
  9 12  1
 10 11  1
 10 39  1
 11 40  1
 12 13  1
 12 27  2
 12 28  2
 13 14  1
 13 41  1
 14 15  1
 14 19  2
 15 16  2
 15 42  1
 16 17  1
 16 43  1
 17 18  2
 17 44  1
 18 19  1
 18 20  1
 19 45  1
 20 21  1
 20 26  2
 21 22  1
 21 46  1
 21 47  1
 22 23  1
 22 48  1
 22 49  1
 23 24  1
 23 25  2
M  ZZE   1 10,10,0,0,0,0,0,0;0,17,0,17,0,0,0,0,0,0,0
M  ZZE   2 10,10,0,0,0,0,0,0;0,17,0,17,0,0,0,0,0,0,0
M  ZZE   3 10,10,0,0,0,0,0,0;0,17,0,17,0,0,0,0,0,0,0
M  ZZE   4 10,10,0,0,0,0,0,0;0,3,0,3,0,0,0,0,0,0,0
M  ZZE   5 10,10,0,0,0,0,0,0;0,17,0,17,0,0,0,0,0,0,0
M  ZZE   6 10,10,0,0,0,0,0,0;0,17,0,17,0,0,0,0,0,0,0
M  ZZE   7 10,10,0,0,0,0,0,0;0,17,0,17,0,0,0,0,0,0,0
M  ZZE   8 10,10,0,0,0,0,0,0;0,17,0,17,0,0,0,0,0,0,0
M  ZZE   9 10,10,0,0,0,0,0,0;0,17,0,17,0,0,0,0,0,0,0
M  ZZE  10 10,10,0,0,0,0,0,0;0,17,0,17,0,0,0,0,0,0,0
M  ZZE  11 10,10,0,0,0,0,0,0;0,3,0,3,0,0,0,0,0,0,0
M  ZZE  12 10,10,0,0,0,0,0,0;0,5,0,5,0,0,0,0,0,0,0
M  ZZE  13 10,10,0,0,0,0,0,0;0,3,0,3,0,0,0,0,0,0,0
M  ZZE  14 10,10,0,0,0,0,0,0;0,17,0,17,0,0,0,0,0,0,0
M  ZZE  15 10,10,0,0,0,0,0,0;0,17,0,17,0,0,0,0,0,0,0
M  ZZE  16 10,10,0,0,0,0,0,0;0,17,0,17,0,0,0,0,0,0,0
M  ZZE  17 10,10,0,0,0,0,0,0;0,17,0,17,0,0,0,0,0,0,0
M  ZZE  18 10,10,0,0,0,0,0,0;0,17,0,17,0,0,0,0,0,0,0
M  ZZE  19 10,10,0,0,0,0,0,0;0,17,0,17,0,0,0,0,0,0,0
M  ZZE  20 10,10,0,0,0,0,0,0;0,17,0,17,0,0,0,0,0,0,0
M  ZZE  21 10,10,0,0,0,0,0,0;0,17,0,17,0,0,0,0,0,0,0
M  ZZE  22 10,10,0,0,0,0,0,0;0,17,0,17,0,0,0,0,0,0,0
M  ZZE  23 10,10,0,0,0,0,0,0;0,17,0,17,0,0,0,0,0,0,0
M  ZZE  24 10,10,0,0,0,0,0,0;0,4,0,4,0,0,0,0,0,0,0
M  ZZE  25 10,10,0,0,0,0,0,0;0,4,0,4,0,0,0,0,0,0,0
M  ZZE  26 10,10,0,0,0,0,0,0;0,4,0,4,0,0,0,0,0,0,0
M  ZZE  27 10,10,0,0,0,0,0,0;0,4,0,4,0,0,0,0,0,0,0
M  ZZE  28 10,10,0,0,0,0,0,0;0,4,0,4,0,0,0,0,0,0,0
M  ZZE  29 10,10,0,0,0,0,0,0;0,4,0,4,0,0,0,0,0,0,0
M  ZZE  30 10,10,0,0,0,0,0,0;1,1,1,1,1,1,1,1,1,1,1
M  ZZE  31 10,10,0,0,0,0,0,0;1,1,1,1,1,1,1,1,1,1,1
M  ZZE  32 10,10,0,0,0,0,0,0;1,1,1,1,1,1,1,1,1,1,1
M  ZZE  33 10,10,0,0,0,0,0,0;1,1,1,1,1,1,1,1,1,1,1
M  ZZE  34 10,10,0,0,0,0,0,0;1,1,1,1,1,1,1,1,1,1,1
M  ZZE  35 10,10,0,0,0,0,0,0;1,1,1,1,1,1,1,1,1,1,1
M  ZZE  36 10,10,0,0,0,0,0,0;1,1,1,1,1,1,1,1,1,1,1
M  ZZE  37 10,10,0,0,0,0,0,0;1,1,1,1,1,1,1,1,1,1,1
M  ZZE  38 10,10,0,0,0,0,0,0;1,1,1,1,1,1,1,1,1,1,1
M  ZZE  39 10,10,0,0,0,0,0,0;1,1,1,1,1,1,1,1,1,1,1
M  ZZE  40 10,10,0,0,0,0,0,0;2,2,2,2,2,2,2,2,2,2,2
M  ZZE  41 10,10,0,0,0,0,0,0;2,2,2,2,2,2,2,2,2,2,2
M  ZZE  42 10,10,0,0,0,0,0,0;1,1,1,1,1,1,1,1,1,1,1
M  ZZE  43 10,10,0,0,0,0,0,0;1,1,1,1,1,1,1,1,1,1,1
M  ZZE  44 10,10,0,0,0,0,0,0;1,1,1,1,1,1,1,1,1,1,1
M  ZZE  45 10,10,0,0,0,0,0,0;1,1,1,1,1,1,1,1,1,1,1
M  ZZE  46 10,10,0,0,0,0,0,0;1,1,1,1,1,1,1,1,1,1,1
M  ZZE  47 10,10,0,0,0,0,0,0;1,1,1,1,1,1,1,1,1,1,1
M  ZZE  48 10,10,0,0,0,0,0,0;1,1,1,1,1,1,1,1,1,1,1
M  ZZE  49 10,10,0,0,0,0,0,0;1,1,1,1,1,1,1,1,1,1,1
M  CHG  1  24  -1
M  END
> <L>
0

> <N>
0

> <idnumber>
Z1373577229

> <smiles>
C1CCN(C1)C(c1cc(c[nH]1)S(Nc1cccc(c1)C(CCC(O)=O)=O)(=O)=O)=O

> <r_i_docking_score>
-5.532911

> <s_m_entry_id>
0

> <CO>
0

> <ord>
0

> <r_pdb_PDB_CRYST1_alpha>
0

> <cl>
0

> <chiral_flag>
0

> <r_pdb_PDB_CRYST1_beta>
0

> <version>
0

> <r_pdb_PDB_CRYST1_gamma>
0

> <i_pdb_PDB_CRYST1_z>
0

> <i_lp_mmshare_version>
0

> <i_m_Source_File_Index>
0

> <s_ppw_entry_id_backup>
0

> <b_ppw_prepared>
0

> <i_epik_Tot_Q>
0

> <b_ppw_assigned_bond_orders>
0

> <i_epik_Tot_abs_Q>
0

> <b_ppw_added_hydrogens>
0

> <b_ppw_treated_metals>
0

> <b_ppw_created_disulfur>
0

> <b_lp_Chiralities_Consistent>
0

> <b_ppw_deleted_far_waters>
0

> <r_lp_tautomer_probability>
0

> <b_ppw_ran_protassign>
0

> <i_f3d_flags>
0

> <i_i_glide_lignum>
0

> <i_i_glide_rotatable_bonds>
0

> <r_i_target_temperature>
0

> <b_ppw_ran_impref>
0

> <r_i_glide_metal>
0

> <i_glide_grid_version>
0

> <r_glide_gridbox_xrange>
0

> <r_glide_gridbox_yrange>
0

> <r_glide_gridbox_zrange>
0

> <r_glide_gridbox_ligxrange>
0

> <r_glide_gridbox_ligyrange>
0

> <i_i_glide_confnum>
0

> <i_i_glide_posenum>
0

> <r_glide_gridbox_ligzrange>
0

> <b_glide_receptor>
0

> <b_glide_conssat_A_ARG_221_H_hbond_>
0

> <b_glide_conssat_A_ARG_221_HE_hbond_>
0

> <b_glide_conssat_A_TYR_261_HH_hbond_>
0

> <b_m_subgroup_collapsed>
0

> <O>
74

> <CO_1>
0

> <ord_1>
0

> <cl_1>
0

> <ord_2>
0

> <cl_2>
0

> <CO_2>
0

> <cl_3>
0

$$$$
C17H14FNO7S
  MOLSOFT 07311911063D

 39 40  0  0  0  0  0  0  0  0999 V2000
    2.0936   21.2176   11.2934 C   0  0  0
    3.2429   21.2806   10.2381 C   0  0  0
    3.3709   22.6286    9.4968 C   0  0  0
    4.5562   22.7910    8.5792 C   0  0  0
    4.7396   24.0065    7.9051 C   0  0  0
    5.8300   24.1804    7.0580 C   0  0  0
    6.7438   23.1465    6.8707 C   0  0  0
    6.5739   21.9262    7.5310 C   0  0  0
    5.4816   21.7465    8.3903 C   0  0  0
    7.4940   20.8815    7.3431 N   0  0  0
    8.2823   20.4851    5.7938 S   0  0  0
    9.9200   21.2392    5.8148 C   0  0  0
   11.0182   20.5054    6.2757 C   0  0  0
   12.2968   21.0922    6.2968 C   0  0  0
   12.4532   22.4166    5.8527 C   0  0  0
   11.3531   23.1368    5.3860 C   0  0  0
   10.0894   22.5501    5.3640 C   0  0  0
   11.5141   24.4064    4.9517 F   0  0  0
   13.4861   20.3113    6.7890 C   0  0  0
   14.5787   20.9178    6.8578 O   0  5  0
   13.2944   19.1118    7.0968 O   0  0  0
    8.4808   19.0320    5.8190 O   0  0  0
    7.5065   21.1145    4.7192 O   0  0  0
    2.5322   23.5118    9.6788 O   0  0  0
    0.6635   21.2065   10.7141 C   0  0  0
   -0.2674   21.5118   11.4968 O   0  5  0
    0.5322   20.8906    9.5084 O   0  0  0
    2.1916   22.0335   12.0111 H   0  0  0
    2.2026   20.3118   11.8841 H   0  0  0
    4.1818   21.1241   10.7693 H   0  0  0
    3.1543   20.4598    9.5261 H   0  0  0
    4.0377   24.8166    8.0441 H   0  0  0
    5.9684   25.1209    6.5446 H   0  0  0
    7.5812   23.2924    6.2154 H   0  0  0
    5.3551   20.8043    8.9016 H   0  0  0
    7.4861   20.1319    8.0170 H   0  0  0
   10.8816   19.4879    6.6169 H   0  0  0
   13.4294   22.8813    5.8645 H   0  0  0
    9.2462   23.1114    4.9955 H   0  0  0
  1  2  1
  1 25  1
  1 28  1
  1 29  1
  2  3  1
  2 30  1
  2 31  1
  3  4  1
  3 24  2
  4  5  1
  4  9  2
  5  6  2
  5 32  1
  6  7  1
  6 33  1
  7  8  2
  7 34  1
  8  9  1
  8 10  1
  9 35  1
 10 11  1
 10 36  1
 11 12  1
 11 22  2
 11 23  2
 12 13  1
 12 17  2
 13 14  2
 13 37  1
 14 15  1
 14 19  1
 15 16  2
 15 38  1
 16 17  1
 16 18  1
 17 39  1
 19 20  1
 19 21  2
 25 26  1
 25 27  2
M  ZZE   1 10,10,0,0,0,0,0,0;0,17,0,17,0,0,0,0,0,0,0
M  ZZE   2 10,10,0,0,0,0,0,0;0,17,0,17,0,0,0,0,0,0,0
M  ZZE   3 10,10,0,0,0,0,0,0;0,17,0,17,0,0,0,0,0,0,0
M  ZZE   4 10,10,0,0,0,0,0,0;0,17,0,17,0,0,0,0,0,0,0
M  ZZE   5 10,10,0,0,0,0,0,0;0,17,0,17,0,0,0,0,0,0,0
M  ZZE   6 10,10,0,0,0,0,0,0;0,17,0,17,0,0,0,0,0,0,0
M  ZZE   7 10,10,0,0,0,0,0,0;0,17,0,17,0,0,0,0,0,0,0
M  ZZE   8 10,10,0,0,0,0,0,0;0,17,0,17,0,0,0,0,0,0,0
M  ZZE   9 10,10,0,0,0,0,0,0;0,17,0,17,0,0,0,0,0,0,0
M  ZZE  10 10,10,0,0,0,0,0,0;0,3,0,3,0,0,0,0,0,0,0
M  ZZE  11 10,10,0,0,0,0,0,0;0,5,0,5,0,0,0,0,0,0,0
M  ZZE  12 10,10,0,0,0,0,0,0;0,17,0,17,0,0,0,0,0,0,0
M  ZZE  13 10,10,0,0,0,0,0,0;0,17,0,17,0,0,0,0,0,0,0
M  ZZE  14 10,10,0,0,0,0,0,0;0,17,0,17,0,0,0,0,0,0,0
M  ZZE  15 10,10,0,0,0,0,0,0;0,17,0,17,0,0,0,0,0,0,0
M  ZZE  16 10,10,0,0,0,0,0,0;0,17,0,17,0,0,0,0,0,0,0
M  ZZE  17 10,10,0,0,0,0,0,0;0,17,0,17,0,0,0,0,0,0,0
M  ZZE  18 10,10,0,0,0,0,0,0;0,101,0,101,0,0,0,0,0,0,0
M  ZZE  19 10,10,0,0,0,0,0,0;0,17,0,17,0,0,0,0,0,0,0
M  ZZE  20 10,10,0,0,0,0,0,0;0,4,0,4,0,0,0,0,0,0,0
M  ZZE  21 10,10,0,0,0,0,0,0;0,4,0,4,0,0,0,0,0,0,0
M  ZZE  22 10,10,0,0,0,0,0,0;0,4,0,4,0,0,0,0,0,0,0
M  ZZE  23 10,10,0,0,0,0,0,0;0,4,0,4,0,0,0,0,0,0,0
M  ZZE  24 10,10,0,0,0,0,0,0;0,4,0,4,0,0,0,0,0,0,0
M  ZZE  25 10,10,0,0,0,0,0,0;0,17,0,17,0,0,0,0,0,0,0
M  ZZE  26 10,10,0,0,0,0,0,0;0,4,0,4,0,0,0,0,0,0,0
M  ZZE  27 10,10,0,0,0,0,0,0;0,4,0,4,0,0,0,0,0,0,0
M  ZZE  28 10,10,0,0,0,0,0,0;1,1,1,1,1,1,1,1,1,1,1
M  ZZE  29 10,10,0,0,0,0,0,0;1,1,1,1,1,1,1,1,1,1,1
M  ZZE  30 10,10,0,0,0,0,0,0;1,1,1,1,1,1,1,1,1,1,1
M  ZZE  31 10,10,0,0,0,0,0,0;1,1,1,1,1,1,1,1,1,1,1
M  ZZE  32 10,10,0,0,0,0,0,0;1,1,1,1,1,1,1,1,1,1,1
M  ZZE  33 10,10,0,0,0,0,0,0;1,1,1,1,1,1,1,1,1,1,1
M  ZZE  34 10,10,0,0,0,0,0,0;1,1,1,1,1,1,1,1,1,1,1
M  ZZE  35 10,10,0,0,0,0,0,0;1,1,1,1,1,1,1,1,1,1,1
M  ZZE  36 10,10,0,0,0,0,0,0;2,2,2,2,2,2,2,2,2,2,2
M  ZZE  37 10,10,0,0,0,0,0,0;1,1,1,1,1,1,1,1,1,1,1
M  ZZE  38 10,10,0,0,0,0,0,0;1,1,1,1,1,1,1,1,1,1,1
M  ZZE  39 10,10,0,0,0,0,0,0;1,1,1,1,1,1,1,1,1,1,1
M  CHG  2  20  -1  26  -1
M  END
> <L>
0

> <N>
83

> <idnumber>
Z1413958985

> <smiles>
C(CC(c1cccc(c1)NS(c1cc(cc(c1)F)C(O)=O)(=O)=O)=O)C(O)=O

> <r_i_docking_score>
-4.751019

> <s_m_entry_id>
679

> <s_m_entry_name>
glide-dock_SP_1.83

> <CO>
253

> <ord>
85

> <r_pdb_PDB_CRYST1_alpha>
0

> <cl>
24

> <chiral_flag>
0

> <r_pdb_PDB_CRYST1_beta>
0

> <version>
0

> <r_pdb_PDB_CRYST1_gamma>
0

> <i_pdb_PDB_CRYST1_z>
0

> <i_lp_mmshare_version>
45011

> <s_epik_input>
W09IXUMoPU8pW0NIMl1bQ0gyXUMoPU8pYzFbY0hdW2NIXVtjSF1jKFtjSF0xKVtOSF1TKD1PKSg9TyljMltjSF1jKEMoPU8pW09IXSlbY0hdYyhGKVtjSF0y

> <s_epik_cmdline>
J2VwaWtfcHl0aG9uJywgJy1waCcsICc3LjMnLCAnLXRuJywgJzgnLCAnLW1hJywgJzIwMCcsICctaW1hZScsICc8aW5maWxlLm1hZT4nLCAnLW9tYWUnLCAnPG91dGZpbGUubWFlPic=

> <r_epik_Ionization_Penalty>
  0.2698

> <s_m_Source_File>
ligprep_1.sdf

> <i_m_Source_File_Index>
85

> <r_epik_Ionization_Penalty_Charging>
  0.0006

> <r_epik_Ionization_Penalty_Neutral>
  0.2692

> <s_ppw_entry_id_backup>
0

> <r_epik_State_Penalty>
  0.2613

> <r_epik_Charging_Adjusted_Penalty>
0.261897

> <b_ppw_prepared>
0

> <i_epik_Tot_Q>
-2

> <b_ppw_assigned_bond_orders>
0

> <i_epik_Tot_abs_Q>
2

> <s_lp_Force_Field>
OPLS3e

> <b_ppw_added_hydrogens>
0

> <b_ppw_treated_metals>
0

> <r_lp_Energy>
25.671384

> <b_ppw_created_disulfur>
0

> <b_lp_Chiralities_Consistent>
1

> <s_lp_Variant>
C17H14FNO7S-1

> <b_ppw_deleted_far_waters>
0

> <s_m_job_name>
glide-dock_SP_1

> <r_lp_tautomer_probability>
1

> <b_ppw_ran_protassign>
0

> <i_f3d_flags>
0

> <s_i_glide_gridfile>
glide-grid_1

> <i_i_glide_lignum>
171

> <i_i_glide_rotatable_bonds>
8

> <r_i_glide_ligand_efficiency>
-0.175964

> <r_i_glide_ligand_efficiency_sa>
-0.527891

> <r_i_glide_ligand_efficiency_ln>
-1.105959

> <r_i_glide_gscore>
-5.012319

> <r_i_glide_lipo>
-0.650212

> <r_i_target_temperature>
0

> <r_i_glide_hbond>
-0.68

> <b_ppw_ran_impref>
0

> <r_i_glide_metal>
0

> <r_i_glide_rewards>
-1.049684

> <i_glide_grid_version>
0

> <r_i_glide_evdw>
-21.192287

> <r_i_glide_ecoul>
-16.740358

> <r_i_glide_erotb>
1.010028

> <r_glide_gridbox_xrange>
0

> <r_i_glide_esite>
-0.071782

> <r_glide_gridbox_yrange>
0

> <r_i_glide_emodel>
-57.439922

> <r_glide_gridbox_zrange>
0

> <r_i_glide_energy>
-37.932646

> <r_i_glide_einternal>
4.326041

> <r_glide_gridbox_ligxrange>
0

> <r_glide_gridbox_ligyrange>
0

> <i_i_glide_confnum>
102

> <i_i_glide_posenum>
637

> <r_glide_gridbox_ligzrange>
0

> <r_i_glide_eff_state_penalty>
0.2613

> <b_glide_receptor>
0

> <r_i_glide_rmsd>
0.159854

> <b_glide_conssat_A_ARG_221_H_hbond_>
0

> <b_glide_conssat_A_ARG_221_HE_hbond_>
0

> <b_glide_conssat_A_TYR_261_HH_hbond_>
1

> <s_m_subgroup_title>
glide-dock_SP_1_pv1

> <s_m_subgroupid>
glide-dock_SP_1_pv1

> <b_m_subgroup_collapsed>
1

> <O>
75

> <CO_1>
48

> <ord_1>
99

> <cl_1>
5

> <ord_2>
2

> <cl_2>
0

> <CO_2>
20

> <cl_3>
1

$$$$
C19H24N2O4
  MOLSOFT 07311911063D

 48 49  0  0  0  0  0  0  0  0999 V2000
    7.8541   16.3785    9.0790 C   0  0  0
    8.8940   16.3541    7.9519 C   0  0  0
    8.4058   16.9963    6.6327 C   0  0  0
    8.2351   18.4511    6.7330 N   0  0  0
    7.1229   19.1244    7.1101 C   0  0  0
    5.8320   18.4170    7.4989 C   0  0  0
    7.4661   20.4890    7.0209 C   0  0  0
    6.6042   21.6940    7.3181 C   0  0  0
    6.9191   22.9323    6.7525 C   0  0  0
    6.1240   24.0444    6.9985 C   0  0  0
    4.9986   23.9455    7.8296 C   0  0  0
    4.6787   22.7040    8.4233 C   0  0  0
    5.4839   21.5812    8.1555 C   0  0  0
    3.4787   22.5850    9.3490 C   0  0  0
    3.2734   21.2191   10.0420 C   0  0  0
    2.1939   21.2123   11.1719 C   0  0  0
    0.7365   21.2368   10.6713 C   0  0  0
   -0.1427   21.5790   11.4967 O   0  5  0
    0.5320   20.9073    9.4786 O   0  0  0
    2.7031   23.5116    9.5841 O   0  0  0
    4.2050   25.0570    8.0755 O   0  0  0
    4.5118   26.3239    7.4975 C   0  0  0
    8.8550   20.4561    6.5616 C   0  0  0
    9.8151   21.5919    6.2768 C   0  0  0
    9.2515   19.2028    6.4178 N   0  0  0
    8.1304   15.6959    9.8843 H   0  0  0
    7.7340   17.3795    9.5019 H   0  0  0
    6.8909   16.0493    8.6972 H   0  0  0
    9.1577   15.3118    7.7550 H   0  0  0
    9.8173   16.8315    8.2887 H   0  0  0
    7.4813   16.5437    6.2797 H   0  0  0
    9.1327   16.7874    5.8444 H   0  0  0
    4.9642   18.9747    7.1451 H   0  0  0
    5.7105   17.4227    7.0755 H   0  0  0
    5.7337   18.3286    8.5790 H   0  0  0
    7.7705   23.0287    6.1044 H   0  0  0
    6.3812   24.9850    6.5405 H   0  0  0
    5.2484   20.6313    8.6023 H   0  0  0
    4.2243   20.9744   10.5159 H   0  0  0
    3.0802   20.4321    9.3112 H   0  0  0
    2.3598   22.0353   11.8703 H   0  0  0
    2.3045   20.3120   11.7702 H   0  0  0
    3.8336   27.0783    7.8937 H   0  0  0
    5.5271   26.6423    7.7326 H   0  0  0
    4.3888   26.3011    6.4134 H   0  0  0
    9.7073   22.4068    6.9923 H   0  0  0
   10.8556   21.2697    6.3427 H   0  0  0
    9.6742   21.9971    5.2738 H   0  0  0
  1  2  1
  1 26  1
  1 27  1
  1 28  1
  2  3  1
  2 29  1
  2 30  1
  3  4  1
  3 31  1
  3 32  1
  4  5  1
  4 25  1
  5  6  1
  5  7  2
  6 33  1
  6 34  1
  6 35  1
  7  8  1
  7 23  1
  8  9  1
  8 13  2
  9 10  2
  9 36  1
 10 11  1
 10 37  1
 11 12  2
 11 21  1
 12 13  1
 12 14  1
 13 38  1
 14 15  1
 14 20  2
 15 16  1
 15 39  1
 15 40  1
 16 17  1
 16 41  1
 16 42  1
 17 18  1
 17 19  2
 21 22  1
 22 43  1
 22 44  1
 22 45  1
 23 24  1
 23 25  2
 24 46  1
 24 47  1
 24 48  1
M  ZZE   1 10,10,0,0,0,0,0,0;0,17,0,17,0,0,0,0,0,0,0
M  ZZE   2 10,10,0,0,0,0,0,0;0,17,0,17,0,0,0,0,0,0,0
M  ZZE   3 10,10,0,0,0,0,0,0;0,17,0,17,0,0,0,0,0,0,0
M  ZZE   4 10,10,0,0,0,0,0,0;0,3,0,3,0,0,0,0,0,0,0
M  ZZE   5 10,10,0,0,0,0,0,0;0,17,0,17,0,0,0,0,0,0,0
M  ZZE   6 10,10,0,0,0,0,0,0;0,17,0,17,0,0,0,0,0,0,0
M  ZZE   7 10,10,0,0,0,0,0,0;0,17,0,17,0,0,0,0,0,0,0
M  ZZE   8 10,10,0,0,0,0,0,0;0,17,0,17,0,0,0,0,0,0,0
M  ZZE   9 10,10,0,0,0,0,0,0;0,17,0,17,0,0,0,0,0,0,0
M  ZZE  10 10,10,0,0,0,0,0,0;0,17,0,17,0,0,0,0,0,0,0
M  ZZE  11 10,10,0,0,0,0,0,0;0,17,0,17,0,0,0,0,0,0,0
M  ZZE  12 10,10,0,0,0,0,0,0;0,17,0,17,0,0,0,0,0,0,0
M  ZZE  13 10,10,0,0,0,0,0,0;0,17,0,17,0,0,0,0,0,0,0
M  ZZE  14 10,10,0,0,0,0,0,0;0,17,0,17,0,0,0,0,0,0,0
M  ZZE  15 10,10,0,0,0,0,0,0;0,17,0,17,0,0,0,0,0,0,0
M  ZZE  16 10,10,0,0,0,0,0,0;0,17,0,17,0,0,0,0,0,0,0
M  ZZE  17 10,10,0,0,0,0,0,0;0,17,0,17,0,0,0,0,0,0,0
M  ZZE  18 10,10,0,0,0,0,0,0;0,4,0,4,0,0,0,0,0,0,0
M  ZZE  19 10,10,0,0,0,0,0,0;0,4,0,4,0,0,0,0,0,0,0
M  ZZE  20 10,10,0,0,0,0,0,0;0,4,0,4,0,0,0,0,0,0,0
M  ZZE  21 10,10,0,0,0,0,0,0;0,4,0,4,0,0,0,0,0,0,0
M  ZZE  22 10,10,0,0,0,0,0,0;0,17,0,17,0,0,0,0,0,0,0
M  ZZE  23 10,10,0,0,0,0,0,0;0,17,0,17,0,0,0,0,0,0,0
M  ZZE  24 10,10,0,0,0,0,0,0;0,17,0,17,0,0,0,0,0,0,0
M  ZZE  25 10,10,0,0,0,0,0,0;0,3,0,3,0,0,0,0,0,0,0
M  ZZE  26 10,10,0,0,0,0,0,0;1,1,1,1,1,1,1,1,1,1,1
M  ZZE  27 10,10,0,0,0,0,0,0;1,1,1,1,1,1,1,1,1,1,1
M  ZZE  28 10,10,0,0,0,0,0,0;1,1,1,1,1,1,1,1,1,1,1
M  ZZE  29 10,10,0,0,0,0,0,0;1,1,1,1,1,1,1,1,1,1,1
M  ZZE  30 10,10,0,0,0,0,0,0;1,1,1,1,1,1,1,1,1,1,1
M  ZZE  31 10,10,0,0,0,0,0,0;1,1,1,1,1,1,1,1,1,1,1
M  ZZE  32 10,10,0,0,0,0,0,0;1,1,1,1,1,1,1,1,1,1,1
M  ZZE  33 10,10,0,0,0,0,0,0;1,1,1,1,1,1,1,1,1,1,1
M  ZZE  34 10,10,0,0,0,0,0,0;1,1,1,1,1,1,1,1,1,1,1
M  ZZE  35 10,10,0,0,0,0,0,0;1,1,1,1,1,1,1,1,1,1,1
M  ZZE  36 10,10,0,0,0,0,0,0;1,1,1,1,1,1,1,1,1,1,1
M  ZZE  37 10,10,0,0,0,0,0,0;1,1,1,1,1,1,1,1,1,1,1
M  ZZE  38 10,10,0,0,0,0,0,0;1,1,1,1,1,1,1,1,1,1,1
M  ZZE  39 10,10,0,0,0,0,0,0;1,1,1,1,1,1,1,1,1,1,1
M  ZZE  40 10,10,0,0,0,0,0,0;1,1,1,1,1,1,1,1,1,1,1
M  ZZE  41 10,10,0,0,0,0,0,0;1,1,1,1,1,1,1,1,1,1,1
M  ZZE  42 10,10,0,0,0,0,0,0;1,1,1,1,1,1,1,1,1,1,1
M  ZZE  43 10,10,0,0,0,0,0,0;1,1,1,1,1,1,1,1,1,1,1
M  ZZE  44 10,10,0,0,0,0,0,0;1,1,1,1,1,1,1,1,1,1,1
M  ZZE  45 10,10,0,0,0,0,0,0;1,1,1,1,1,1,1,1,1,1,1
M  ZZE  46 10,10,0,0,0,0,0,0;1,1,1,1,1,1,1,1,1,1,1
M  ZZE  47 10,10,0,0,0,0,0,0;1,1,1,1,1,1,1,1,1,1,1
M  ZZE  48 10,10,0,0,0,0,0,0;1,1,1,1,1,1,1,1,1,1,1
M  CHG  1  18  -1
M  END
> <L>
0

> <N>
88

> <idnumber>
Z2581558272

> <smiles>
CCCn1c(C)c(c2ccc(c(c2)C(CCC(O)=O)=O)OC)c(C)n1

> <r_i_docking_score>
-4.73936

> <s_m_entry_id>
684

> <s_m_entry_name>
glide-dock_SP_1.88

> <CO>
284

> <ord>
284

> <r_pdb_PDB_CRYST1_alpha>
0

> <cl>
174

> <chiral_flag>
0

> <r_pdb_PDB_CRYST1_beta>
0

> <version>
0

> <r_pdb_PDB_CRYST1_gamma>
0

> <i_pdb_PDB_CRYST1_z>
0

> <i_lp_mmshare_version>
45011

> <s_epik_input>
W0NIM11bQ0gyXVtDSDJdbjFjKFtDSDNdKWMoYyhuMSlbQ0gzXSktYzJbY0hdW2NIXWMoT1tDSDNdKWMoW2NIXTIpQyg9TylbQ0gyXVtDSDJdQyg9TylbT0hd

> <s_epik_cmdline>
J2VwaWtfcHl0aG9uJywgJy1waCcsICc3LjMnLCAnLXRuJywgJzgnLCAnLW1hJywgJzIwMCcsICctaW1hZScsICc8aW5maWxlLm1hZT4nLCAnLW9tYWUnLCAnPG91dGZpbGUubWFlPic=

> <r_epik_Ionization_Penalty>
  0.0006

> <s_m_Source_File>
ligprep_1.sdf

> <i_m_Source_File_Index>
284

> <r_epik_Ionization_Penalty_Charging>
  0.0005

> <r_epik_Ionization_Penalty_Neutral>
  0.0001

> <s_ppw_entry_id_backup>
0

> <r_epik_State_Penalty>
  0.0003

> <r_epik_Charging_Adjusted_Penalty>
0.000857

> <b_ppw_prepared>
0

> <i_epik_Tot_Q>
-1

> <b_ppw_assigned_bond_orders>
0

> <i_epik_Tot_abs_Q>
1

> <s_lp_Force_Field>
OPLS3e

> <b_ppw_added_hydrogens>
0

> <b_ppw_treated_metals>
0

> <r_lp_Energy>
19.571198

> <b_ppw_created_disulfur>
0

> <b_lp_Chiralities_Consistent>
1

> <s_lp_Variant>
C19H24N2O4-1

> <b_ppw_deleted_far_waters>
0

> <s_m_job_name>
glide-dock_SP_1

> <r_lp_tautomer_probability>
1

> <b_ppw_ran_protassign>
0

> <i_f3d_flags>
0

> <s_i_glide_gridfile>
glide-grid_1

> <i_i_glide_lignum>
586

> <i_i_glide_rotatable_bonds>
8

> <r_i_glide_ligand_efficiency>
-0.189574

> <r_i_glide_ligand_efficiency_sa>
-0.554319

> <r_i_glide_ligand_efficiency_ln>
-1.12337

> <r_i_glide_gscore>
-4.73966

> <r_i_glide_lipo>
-0.689988

> <r_i_target_temperature>
0

> <r_i_glide_hbond>
-0.48

> <b_ppw_ran_impref>
0

> <r_i_glide_metal>
0

> <r_i_glide_rewards>
-1.458545

> <i_glide_grid_version>
0

> <r_i_glide_evdw>
-25.698681

> <r_i_glide_ecoul>
-11.765467

> <r_i_glide_erotb>
0.965447

> <r_glide_gridbox_xrange>
0

> <r_i_glide_esite>
-0.02682

> <r_glide_gridbox_yrange>
0

> <r_i_glide_emodel>
-52.770068

> <r_glide_gridbox_zrange>
0

> <r_i_glide_energy>
-37.464148

> <r_i_glide_einternal>
3.265479

> <r_glide_gridbox_ligxrange>
0

> <r_glide_gridbox_ligyrange>
0

> <i_i_glide_confnum>
23

> <i_i_glide_posenum>
166

> <r_glide_gridbox_ligzrange>
0

> <r_i_glide_eff_state_penalty>
0.0003

> <b_glide_receptor>
0

> <r_i_glide_rmsd>
0.214181

> <b_glide_conssat_A_ARG_221_H_hbond_>
0

> <b_glide_conssat_A_ARG_221_HE_hbond_>
0

> <b_glide_conssat_A_TYR_261_HH_hbond_>
1

> <s_m_subgroup_title>
glide-dock_SP_1_pv1

> <s_m_subgroupid>
glide-dock_SP_1_pv1

> <b_m_subgroup_collapsed>
1

> <O>
76

> <CO_1>
52

> <ord_1>
284

> <cl_1>
57

> <ord_2>
5

> <cl_2>
0

> <CO_2>
42

> <cl_3>
4

$$$$
C21H21F2NO5S
  MOLSOFT 07311911063D

 50 52  0  0  0  0  0  0  0  0999 V2000
    6.4128   23.1734    3.6055 C   0  0  0
    7.9238   22.8646    3.6202 C   0  0  0
    8.2374   21.6999    4.4820 N   0  0  0
    7.5169   20.4580    4.1183 C   0  0  0
    5.9881   20.6710    4.1605 C   0  0  0
    5.5571   21.9107    3.3229 C   0  0  0
    4.0596   22.2227    3.3947 C   0  0  0
    3.3265   22.4196    2.2181 C   0  0  0
    1.9637   22.7123    2.2842 C   0  0  0
    1.3282   22.8078    3.5220 C   0  0  0
    2.0561   22.6132    4.6971 C   0  0  0
    3.4185   22.3224    4.6357 C   0  0  0
    1.4418   22.7086    5.8955 F   0  0  0
    0.0066   23.0901    3.5827 F   0  0  0
    8.7131   21.9611    6.1766 S   0  0  0
    7.1988   22.1063    7.1308 C   0  0  0
    6.7145   21.0009    7.8291 C   0  0  0
    5.5520   21.1110    8.5830 C   0  0  0
    4.8619   22.3339    8.6334 C   0  0  0
    5.3508   23.4388    7.9209 C   0  0  0
    6.5217   23.3243    7.1761 C   0  0  0
    3.6064   22.4722    9.4517 C   0  0  0
    3.1950   21.2364   10.2853 C   0  0  0
    2.0487   21.4366   11.3140 C   0  0  0
    0.6408   21.4948   10.7029 C   0  0  0
   -0.2840   21.8885   11.4523 O   0  5  0
    0.5167   21.1385    9.5081 O   0  0  0
    2.9324   23.5059    9.4966 O   0  0  0
    9.3951   23.2567    6.2680 O   0  0  0
    9.3774   20.7346    6.6358 O   0  0  0
    6.1203   23.6344    4.5466 H   0  0  0
    6.2449   23.9135    2.8216 H   0  0  0
    8.5136   23.7253    3.9387 H   0  0  0
    8.2476   22.6193    2.6076 H   0  0  0
    7.8141   20.1871    3.1038 H   0  0  0
    7.8388   19.6478    4.7747 H   0  0  0
    5.5227   19.7724    3.7541 H   0  0  0
    5.6735   20.7592    5.1989 H   0  0  0
    5.7372   21.6344    2.2814 H   0  0  0
    3.8149   22.3476    1.2571 H   0  0  0
    1.3998   22.8644    1.3758 H   0  0  0
    3.9771   22.1777    5.5482 H   0  0  0
    7.2456   20.0605    7.7928 H   0  0  0
    5.1891   20.2515    9.1253 H   0  0  0
    4.8282   24.3851    7.9571 H   0  0  0
    6.9051   24.1792    6.6374 H   0  0  0
    4.0772   20.9629   10.8646 H   0  0  0
    2.9855   20.3862    9.6359 H   0  0  0
    2.2270   22.3155   11.9345 H   0  0  0
    2.0497   20.5876   11.9981 H   0  0  0
  1  2  1
  1  6  1
  1 31  1
  1 32  1
  2  3  1
  2 33  1
  2 34  1
  3  4  1
  3 15  1
  4  5  1
  4 35  1
  4 36  1
  5  6  1
  5 37  1
  5 38  1
  6  7  1
  6 39  1
  7  8  1
  7 12  2
  8  9  2
  8 40  1
  9 10  1
  9 41  1
 10 11  2
 10 14  1
 11 12  1
 11 13  1
 12 42  1
 15 16  1
 15 29  2
 15 30  2
 16 17  1
 16 21  2
 17 18  2
 17 43  1
 18 19  1
 18 44  1
 19 20  2
 19 22  1
 20 21  1
 20 45  1
 21 46  1
 22 23  1
 22 28  2
 23 24  1
 23 47  1
 23 48  1
 24 25  1
 24 49  1
 24 50  1
 25 26  1
 25 27  2
M  ZZE   1 10,10,0,0,0,0,0,0;0,17,0,17,0,0,0,0,0,0,0
M  ZZE   2 10,10,0,0,0,0,0,0;0,17,0,17,0,0,0,0,0,0,0
M  ZZE   3 10,10,0,0,0,0,0,0;0,3,0,3,0,0,0,0,0,0,0
M  ZZE   4 10,10,0,0,0,0,0,0;0,17,0,17,0,0,0,0,0,0,0
M  ZZE   5 10,10,0,0,0,0,0,0;0,17,0,17,0,0,0,0,0,0,0
M  ZZE   6 10,10,0,0,0,0,0,0;0,17,0,17,0,0,0,0,0,0,0
M  ZZE   7 10,10,0,0,0,0,0,0;0,17,0,17,0,0,0,0,0,0,0
M  ZZE   8 10,10,0,0,0,0,0,0;0,17,0,17,0,0,0,0,0,0,0
M  ZZE   9 10,10,0,0,0,0,0,0;0,17,0,17,0,0,0,0,0,0,0
M  ZZE  10 10,10,0,0,0,0,0,0;0,17,0,17,0,0,0,0,0,0,0
M  ZZE  11 10,10,0,0,0,0,0,0;0,17,0,17,0,0,0,0,0,0,0
M  ZZE  12 10,10,0,0,0,0,0,0;0,17,0,17,0,0,0,0,0,0,0
M  ZZE  13 10,10,0,0,0,0,0,0;0,101,0,101,0,0,0,0,0,0,0
M  ZZE  14 10,10,0,0,0,0,0,0;0,101,0,101,0,0,0,0,0,0,0
M  ZZE  15 10,10,0,0,0,0,0,0;0,5,0,5,0,0,0,0,0,0,0
M  ZZE  16 10,10,0,0,0,0,0,0;0,17,0,17,0,0,0,0,0,0,0
M  ZZE  17 10,10,0,0,0,0,0,0;0,17,0,17,0,0,0,0,0,0,0
M  ZZE  18 10,10,0,0,0,0,0,0;0,17,0,17,0,0,0,0,0,0,0
M  ZZE  19 10,10,0,0,0,0,0,0;0,17,0,17,0,0,0,0,0,0,0
M  ZZE  20 10,10,0,0,0,0,0,0;0,17,0,17,0,0,0,0,0,0,0
M  ZZE  21 10,10,0,0,0,0,0,0;0,17,0,17,0,0,0,0,0,0,0
M  ZZE  22 10,10,0,0,0,0,0,0;0,17,0,17,0,0,0,0,0,0,0
M  ZZE  23 10,10,0,0,0,0,0,0;0,17,0,17,0,0,0,0,0,0,0
M  ZZE  24 10,10,0,0,0,0,0,0;0,17,0,17,0,0,0,0,0,0,0
M  ZZE  25 10,10,0,0,0,0,0,0;0,17,0,17,0,0,0,0,0,0,0
M  ZZE  26 10,10,0,0,0,0,0,0;0,4,0,4,0,0,0,0,0,0,0
M  ZZE  27 10,10,0,0,0,0,0,0;0,4,0,4,0,0,0,0,0,0,0
M  ZZE  28 10,10,0,0,0,0,0,0;0,4,0,4,0,0,0,0,0,0,0
M  ZZE  29 10,10,0,0,0,0,0,0;0,4,0,4,0,0,0,0,0,0,0
M  ZZE  30 10,10,0,0,0,0,0,0;0,4,0,4,0,0,0,0,0,0,0
M  ZZE  31 10,10,0,0,0,0,0,0;1,1,1,1,1,1,1,1,1,1,1
M  ZZE  32 10,10,0,0,0,0,0,0;1,1,1,1,1,1,1,1,1,1,1
M  ZZE  33 10,10,0,0,0,0,0,0;1,1,1,1,1,1,1,1,1,1,1
M  ZZE  34 10,10,0,0,0,0,0,0;1,1,1,1,1,1,1,1,1,1,1
M  ZZE  35 10,10,0,0,0,0,0,0;1,1,1,1,1,1,1,1,1,1,1
M  ZZE  36 10,10,0,0,0,0,0,0;1,1,1,1,1,1,1,1,1,1,1
M  ZZE  37 10,10,0,0,0,0,0,0;1,1,1,1,1,1,1,1,1,1,1
M  ZZE  38 10,10,0,0,0,0,0,0;1,1,1,1,1,1,1,1,1,1,1
M  ZZE  39 10,10,0,0,0,0,0,0;1,1,1,1,1,1,1,1,1,1,1
M  ZZE  40 10,10,0,0,0,0,0,0;1,1,1,1,1,1,1,1,1,1,1
M  ZZE  41 10,10,0,0,0,0,0,0;1,1,1,1,1,1,1,1,1,1,1
M  ZZE  42 10,10,0,0,0,0,0,0;1,1,1,1,1,1,1,1,1,1,1
M  ZZE  43 10,10,0,0,0,0,0,0;1,1,1,1,1,1,1,1,1,1,1
M  ZZE  44 10,10,0,0,0,0,0,0;1,1,1,1,1,1,1,1,1,1,1
M  ZZE  45 10,10,0,0,0,0,0,0;1,1,1,1,1,1,1,1,1,1,1
M  ZZE  46 10,10,0,0,0,0,0,0;1,1,1,1,1,1,1,1,1,1,1
M  ZZE  47 10,10,0,0,0,0,0,0;1,1,1,1,1,1,1,1,1,1,1
M  ZZE  48 10,10,0,0,0,0,0,0;1,1,1,1,1,1,1,1,1,1,1
M  ZZE  49 10,10,0,0,0,0,0,0;1,1,1,1,1,1,1,1,1,1,1
M  ZZE  50 10,10,0,0,0,0,0,0;1,1,1,1,1,1,1,1,1,1,1
M  CHG  1  26  -1
M  END
> <L>
0

> <N>
172

> <idnumber>
Z1359463303

> <smiles>
C1CN(CCC1c1ccc(c(c1)F)F)S(c1ccc(cc1)C(CCC(O)=O)=O)(=O)=O

> <r_i_docking_score>
-4.538963

> <s_m_entry_id>
768

> <s_m_entry_name>
glide-dock_SP_1.172

> <CO>
69

> <ord>
253

> <r_pdb_PDB_CRYST1_alpha>
0

> <cl>
144

> <chiral_flag>
0

> <r_pdb_PDB_CRYST1_beta>
0

> <version>
0

> <r_pdb_PDB_CRYST1_gamma>
0

> <i_pdb_PDB_CRYST1_z>
0

> <i_lp_mmshare_version>
45011

> <s_epik_input>
W2NIXTFjKEYpYyhGKVtjSF1bY0hdYzFbQ0hdKFtDSDJdW0NIMl0yKVtDSDJdW0NIMl1OMlMoPU8pKD1PKWMzW2NIXVtjSF1jKFtjSF1bY0hdMylDKD1PKVtDSDJdW0NIMl1DKD1PKVtPSF0=

> <s_epik_cmdline>
J2VwaWtfcHl0aG9uJywgJy1waCcsICc3LjMnLCAnLXRuJywgJzgnLCAnLW1hJywgJzIwMCcsICctaW1hZScsICc8aW5maWxlLm1hZT4nLCAnLW9tYWUnLCAnPG91dGZpbGUubWFlPic=

> <r_epik_Ionization_Penalty>
  0.0005

> <s_m_Source_File>
ligprep_1.sdf

> <i_m_Source_File_Index>
253

> <r_epik_Ionization_Penalty_Charging>
  0.0005

> <r_epik_Ionization_Penalty_Neutral>
  0.0000

> <s_ppw_entry_id_backup>
0

> <r_epik_State_Penalty>
  0.0003

> <r_epik_Charging_Adjusted_Penalty>
0.000857

> <b_ppw_prepared>
0

> <i_epik_Tot_Q>
-1

> <b_ppw_assigned_bond_orders>
0

> <i_epik_Tot_abs_Q>
1

> <s_lp_Force_Field>
OPLS3e

> <b_ppw_added_hydrogens>
0

> <b_ppw_treated_metals>
0

> <r_lp_Energy>
29.091025

> <b_ppw_created_disulfur>
0

> <b_lp_Chiralities_Consistent>
1

> <s_lp_Variant>
C21H21F2NO5S-1

> <b_ppw_deleted_far_waters>
0

> <s_m_job_name>
glide-dock_SP_1

> <r_lp_tautomer_probability>
1

> <b_ppw_ran_protassign>
0

> <i_f3d_flags>
0

> <s_i_glide_gridfile>
glide-grid_1

> <i_i_glide_lignum>
509

> <i_i_glide_rotatable_bonds>
7

> <r_i_glide_ligand_efficiency>
-0.151299

> <r_i_glide_ligand_efficiency_sa>
-0.47012

> <r_i_glide_ligand_efficiency_ln>
-1.031302

> <r_i_glide_gscore>
-4.539263

> <r_i_glide_lipo>
-0.919169

> <r_i_target_temperature>
0

> <r_i_glide_hbond>
-0.48

> <b_ppw_ran_impref>
0

> <r_i_glide_metal>
0

> <r_i_glide_rewards>
-0.897805

> <i_glide_grid_version>
0

> <r_i_glide_evdw>
-25.169056

> <r_i_glide_ecoul>
-11.316116

> <r_i_glide_erotb>
0.732488

> <r_glide_gridbox_xrange>
0

> <r_i_glide_esite>
-0.018907

> <r_glide_gridbox_yrange>
0

> <r_i_glide_emodel>
-50.864087

> <r_glide_gridbox_zrange>
0

> <r_i_glide_energy>
-36.485172

> <r_i_glide_einternal>
1.55862

> <r_glide_gridbox_ligxrange>
0

> <r_glide_gridbox_ligyrange>
0

> <i_i_glide_confnum>
95

> <i_i_glide_posenum>
359

> <r_glide_gridbox_ligzrange>
0

> <r_i_glide_eff_state_penalty>
0.0003

> <b_glide_receptor>
0

> <r_i_glide_rmsd>
0.264469

> <b_glide_conssat_A_ARG_221_H_hbond_>
0

> <b_glide_conssat_A_ARG_221_HE_hbond_>
0

> <b_glide_conssat_A_TYR_261_HH_hbond_>
1

> <s_m_subgroup_title>
glide-dock_SP_1_pv1

> <s_m_subgroupid>
glide-dock_SP_1_pv1

> <b_m_subgroup_collapsed>
1

> <O>
77

> <CO_1>
88

> <ord_1>
220

> <cl_1>
22

> <ord_2>
4

> <cl_2>
0

> <CO_2>
38

> <cl_3>
3

$$$$
C20H23NO6S
  MOLSOFT 07311911063D

 50 51  0  0  1  0  0  0  0  0999 V2000
    4.8288   20.0618    2.0577 C   0  0  0
    5.8963   19.6154    3.0783 C   0  0  1
    6.6468   20.7720    3.7781 C   0  0  0
    7.7004   20.2668    4.6834 N   0  0  0
    8.3496   21.3328    5.9149 S   0  0  0
    6.9479   21.6557    6.9790 C   0  0  0
    6.5177   20.6708    7.8646 C   0  0  0
    5.4233   20.9098    8.6878 C   0  0  0
    4.7521   22.1438    8.6228 C   0  0  0
    5.1932   23.1295    7.7296 C   0  0  0
    6.2907   22.8847    6.9098 C   0  0  0
    3.5654   22.4186    9.5038 C   0  0  0
    3.1621   21.2865   10.4775 C   0  0  0
    1.9739   21.5678   11.4361 C   0  0  0
    0.5878   21.5873   10.7701 C   0  0  0
   -0.3806   21.9117   11.4953 O   0  5  0
    0.5247   21.2767    9.5586 O   0  0  0
    2.9320   23.4800    9.4851 O   0  0  0
    8.7288   22.5922    5.2656 O   0  0  0
    9.3176   20.5546    6.6956 O   0  0  0
    5.4471   18.5778    3.9656 O   0  0  0
    4.3867   18.6695    4.8550 C   0  0  0
    3.7549   19.8944    5.1215 C   0  0  0
    2.6881   19.9475    6.0159 C   0  0  0
    2.2488   18.7840    6.6474 C   0  0  0
    1.0800   18.8395    7.6118 C   0  0  0
    2.8784   17.5685    6.3881 C   0  0  0
    3.9448   17.5120    5.4954 C   0  0  0
    5.2430   20.7826    1.3527 H   0  0  0
    4.4779   19.2091    1.4759 H   0  0  0
    3.9542   20.5225    2.5101 H   0  0  0
    6.6602   19.1062    2.4878 H   0  0  0
    5.9889   21.4337    4.3366 H   0  0  0
    7.1296   21.4052    3.0313 H   0  0  0
    7.6195   19.2828    4.9523 H   0  0  0
    7.0336   19.7220    7.9126 H   0  0  0
    5.0982   20.1418    9.3712 H   0  0  0
    4.6842   24.0825    7.6749 H   0  0  0
    6.6296   23.6452    6.2207 H   0  0  0
    4.0383   21.0954   11.0978 H   0  0  0
    2.9772   20.3650    9.9253 H   0  0  0
    2.1332   22.4965   11.9835 H   0  0  0
    1.9476   20.7783   12.1879 H   0  0  0
    4.0837   20.7956    4.6399 H   0  0  0
    2.2006   20.8908    6.2185 H   0  0  0
    1.4359   18.9758    8.6324 H   0  0  0
    0.3995   19.6551    7.3619 H   0  0  0
    0.4931   17.9218    7.5609 H   0  0  0
    2.5358   16.6692    6.8771 H   0  0  0
    4.4289   16.5682    5.2927 H   0  0  0
  2  1  1
  1 29  1
  1 30  1
  1 31  1
  2  3  1
  2 21  1
  2 32  1
  3  4  1
  3 33  1
  3 34  1
  4  5  1
  4 35  1
  5  6  1
  5 19  2
  5 20  2
  6  7  1
  6 11  2
  7  8  2
  7 36  1
  8  9  1
  8 37  1
  9 10  2
  9 12  1
 10 11  1
 10 38  1
 11 39  1
 12 13  1
 12 18  2
 13 14  1
 13 40  1
 13 41  1
 14 15  1
 14 42  1
 14 43  1
 15 16  1
 15 17  2
 21 22  1
 22 23  1
 22 28  2
 23 24  2
 23 44  1
 24 25  1
 24 45  1
 25 26  1
 25 27  2
 26 46  1
 26 47  1
 26 48  1
 27 28  1
 27 49  1
 28 50  1
M  ZZE   1 10,10,0,0,0,0,0,0;0,17,0,17,0,0,0,0,0,0,0
M  ZZE   2 10,10,0,0,0,0,0,0;0,17,0,17,0,0,0,0,0,0,0
M  ZZE   3 10,10,0,0,0,0,0,0;0,17,0,17,0,0,0,0,0,0,0
M  ZZE   4 10,10,0,0,0,0,0,0;0,3,0,3,0,0,0,0,0,0,0
M  ZZE   5 10,10,0,0,0,0,0,0;0,5,0,5,0,0,0,0,0,0,0
M  ZZE   6 10,10,0,0,0,0,0,0;0,17,0,17,0,0,0,0,0,0,0
M  ZZE   7 10,10,0,0,0,0,0,0;0,17,0,17,0,0,0,0,0,0,0
M  ZZE   8 10,10,0,0,0,0,0,0;0,17,0,17,0,0,0,0,0,0,0
M  ZZE   9 10,10,0,0,0,0,0,0;0,17,0,17,0,0,0,0,0,0,0
M  ZZE  10 10,10,0,0,0,0,0,0;0,17,0,17,0,0,0,0,0,0,0
M  ZZE  11 10,10,0,0,0,0,0,0;0,17,0,17,0,0,0,0,0,0,0
M  ZZE  12 10,10,0,0,0,0,0,0;0,17,0,17,0,0,0,0,0,0,0
M  ZZE  13 10,10,0,0,0,0,0,0;0,17,0,17,0,0,0,0,0,0,0
M  ZZE  14 10,10,0,0,0,0,0,0;0,17,0,17,0,0,0,0,0,0,0
M  ZZE  15 10,10,0,0,0,0,0,0;0,17,0,17,0,0,0,0,0,0,0
M  ZZE  16 10,10,0,0,0,0,0,0;0,4,0,4,0,0,0,0,0,0,0
M  ZZE  17 10,10,0,0,0,0,0,0;0,4,0,4,0,0,0,0,0,0,0
M  ZZE  18 10,10,0,0,0,0,0,0;0,4,0,4,0,0,0,0,0,0,0
M  ZZE  19 10,10,0,0,0,0,0,0;0,4,0,4,0,0,0,0,0,0,0
M  ZZE  20 10,10,0,0,0,0,0,0;0,4,0,4,0,0,0,0,0,0,0
M  ZZE  21 10,10,0,0,0,0,0,0;0,4,0,4,0,0,0,0,0,0,0
M  ZZE  22 10,10,0,0,0,0,0,0;0,17,0,17,0,0,0,0,0,0,0
M  ZZE  23 10,10,0,0,0,0,0,0;0,17,0,17,0,0,0,0,0,0,0
M  ZZE  24 10,10,0,0,0,0,0,0;0,17,0,17,0,0,0,0,0,0,0
M  ZZE  25 10,10,0,0,0,0,0,0;0,17,0,17,0,0,0,0,0,0,0
M  ZZE  26 10,10,0,0,0,0,0,0;0,17,0,17,0,0,0,0,0,0,0
M  ZZE  27 10,10,0,0,0,0,0,0;0,17,0,17,0,0,0,0,0,0,0
M  ZZE  28 10,10,0,0,0,0,0,0;0,17,0,17,0,0,0,0,0,0,0
M  ZZE  29 10,10,0,0,0,0,0,0;1,1,1,1,1,1,1,1,1,1,1
M  ZZE  30 10,10,0,0,0,0,0,0;1,1,1,1,1,1,1,1,1,1,1
M  ZZE  31 10,10,0,0,0,0,0,0;1,1,1,1,1,1,1,1,1,1,1
M  ZZE  32 10,10,0,0,0,0,0,0;1,1,1,1,1,1,1,1,1,1,1
M  ZZE  33 10,10,0,0,0,0,0,0;1,1,1,1,1,1,1,1,1,1,1
M  ZZE  34 10,10,0,0,0,0,0,0;1,1,1,1,1,1,1,1,1,1,1
M  ZZE  35 10,10,0,0,0,0,0,0;2,2,2,2,2,2,2,2,2,2,2
M  ZZE  36 10,10,0,0,0,0,0,0;1,1,1,1,1,1,1,1,1,1,1
M  ZZE  37 10,10,0,0,0,0,0,0;1,1,1,1,1,1,1,1,1,1,1
M  ZZE  38 10,10,0,0,0,0,0,0;1,1,1,1,1,1,1,1,1,1,1
M  ZZE  39 10,10,0,0,0,0,0,0;1,1,1,1,1,1,1,1,1,1,1
M  ZZE  40 10,10,0,0,0,0,0,0;1,1,1,1,1,1,1,1,1,1,1
M  ZZE  41 10,10,0,0,0,0,0,0;1,1,1,1,1,1,1,1,1,1,1
M  ZZE  42 10,10,0,0,0,0,0,0;1,1,1,1,1,1,1,1,1,1,1
M  ZZE  43 10,10,0,0,0,0,0,0;1,1,1,1,1,1,1,1,1,1,1
M  ZZE  44 10,10,0,0,0,0,0,0;1,1,1,1,1,1,1,1,1,1,1
M  ZZE  45 10,10,0,0,0,0,0,0;1,1,1,1,1,1,1,1,1,1,1
M  ZZE  46 10,10,0,0,0,0,0,0;1,1,1,1,1,1,1,1,1,1,1
M  ZZE  47 10,10,0,0,0,0,0,0;1,1,1,1,1,1,1,1,1,1,1
M  ZZE  48 10,10,0,0,0,0,0,0;1,1,1,1,1,1,1,1,1,1,1
M  ZZE  49 10,10,0,0,0,0,0,0;1,1,1,1,1,1,1,1,1,1,1
M  ZZE  50 10,10,0,0,0,0,0,0;1,1,1,1,1,1,1,1,1,1,1
M  CHG  1  16  -1
M  END
> <L>
0

> <N>
371

> <idnumber>
Z1682152871

> <smiles>
CC(CNS(c1ccc(cc1)C(CCC(O)=O)=O)(=O)=O)Oc1ccc(C)cc1

> <r_i_docking_score>
-4.244785

> <s_m_entry_id>
967

> <s_m_entry_name>
glide-dock_SP_1.371

> <CO>
272

> <ord>
178

> <r_pdb_PDB_CRYST1_alpha>
0

> <cl>
82

> <chiral_flag>
0

> <r_pdb_PDB_CRYST1_beta>
0

> <version>
0

> <r_pdb_PDB_CRYST1_gamma>
0

> <i_pdb_PDB_CRYST1_z>
0

> <i_lp_mmshare_version>
45011

> <s_epik_input>
W2NIXTFbY0hdYyhbQ0gzXSlbY0hdW2NIXWMxT1tDQEBIXShbQ0gzXSlbQ0gyXVtOSF1TKD1PKSg9TyljMltjSF1bY0hdYyhbY0hdW2NIXTIpQyg9TylbQ0gyXVtDSDJdQyg9TylbT0hd

> <s_epik_cmdline>
J2VwaWtfcHl0aG9uJywgJy1waCcsICc3LjMnLCAnLXRuJywgJzgnLCAnLW1hJywgJzIwMCcsICctaW1hZScsICc8aW5maWxlLm1hZT4nLCAnLW9tYWUnLCAnPG91dGZpbGUubWFlPic=

> <r_epik_Ionization_Penalty>
  0.0013

> <s_m_Source_File>
ligprep_1.sdf

> <i_m_Source_File_Index>
178

> <r_epik_Ionization_Penalty_Charging>
  0.0005

> <r_epik_Ionization_Penalty_Neutral>
  0.0008

> <s_ppw_entry_id_backup>
0

> <r_epik_State_Penalty>
  0.0000

> <r_epik_Charging_Adjusted_Penalty>
0.000528

> <b_ppw_prepared>
0

> <i_epik_Tot_Q>
-1

> <b_ppw_assigned_bond_orders>
0

> <i_epik_Tot_abs_Q>
1

> <s_lp_Force_Field>
OPLS3e

> <b_ppw_added_hydrogens>
0

> <b_ppw_treated_metals>
0

> <r_lp_Energy>
16.225072

> <b_ppw_created_disulfur>
0

> <b_lp_Chiralities_Consistent>
1

> <s_lp_Variant>
C20H23NO6S-2

> <b_ppw_deleted_far_waters>
0

> <s_m_job_name>
glide-dock_SP_1

> <r_lp_tautomer_probability>
1

> <b_ppw_ran_protassign>
0

> <i_f3d_flags>
0

> <s_i_glide_gridfile>
glide-grid_1

> <i_i_glide_lignum>
346

> <i_i_glide_rotatable_bonds>
10

> <r_i_glide_ligand_efficiency>
-0.151599

> <r_i_glide_ligand_efficiency_sa>
-0.460345

> <r_i_glide_ligand_efficiency_ln>
-0.979821

> <r_i_glide_gscore>
-4.244785

> <r_i_glide_lipo>
-1.1278

> <r_i_target_temperature>
0

> <r_i_glide_hbond>
-0.48

> <b_ppw_ran_impref>
0

> <r_i_glide_metal>
0

> <r_i_glide_rewards>
-0.731165

> <i_glide_grid_version>
0

> <r_i_glide_evdw>
-29.330009

> <r_i_glide_ecoul>
-10.852416

> <r_i_glide_erotb>
1.200793

> <r_glide_gridbox_xrange>
0

> <r_i_glide_esite>
-0.01225

> <r_glide_gridbox_yrange>
0

> <r_i_glide_emodel>
-54.379259

> <r_glide_gridbox_zrange>
0

> <r_i_glide_energy>
-40.182425

> <r_i_glide_einternal>
2.271833

> <r_glide_gridbox_ligxrange>
0

> <r_glide_gridbox_ligyrange>
0

> <i_i_glide_confnum>
256

> <i_i_glide_posenum>
701

> <r_glide_gridbox_ligzrange>
0

> <r_i_glide_eff_state_penalty>
0.

> <b_glide_receptor>
0

> <r_i_glide_rmsd>
0.337878

> <b_glide_conssat_A_ARG_221_H_hbond_>
0

> <b_glide_conssat_A_ARG_221_HE_hbond_>
0

> <b_glide_conssat_A_TYR_261_HH_hbond_>
1

> <s_m_subgroup_title>
glide-dock_SP_1_pv1

> <s_m_subgroupid>
glide-dock_SP_1_pv1

> <b_m_subgroup_collapsed>
1

> <O>
78

> <CO_1>
172

> <ord_1>
183

> <cl_1>
11

> <ord_2>
3

> <cl_2>
0

> <CO_2>
34

> <cl_3>
2

$$$$
C17H14ClNO7S
  MOLSOFT 07311911063D

 39 40  0  0  0  0  0  0  0  0999 V2000
    2.0983   21.9119   11.1746 C   0  0  0
    3.2241   21.3855   10.2342 C   0  0  0
    3.8749   22.3825    9.2415 C   0  0  0
    5.1116   21.8895    8.5199 C   0  0  0
    5.5335   20.5633    8.6713 C   0  0  0
    6.6678   20.1063    8.0074 C   0  0  0
    7.4063   20.9689    7.2019 C   0  0  0
    7.0047   22.2999    7.0423 C   0  0  0
    5.8487   22.7593    7.6962 C   0  0  0
    7.7501   23.1840    6.2384 N   0  0  0
    9.0944   22.7706    5.1274 S   0  0  0
   10.6322   22.7912    6.0734 C   0  0  0
   11.0991   23.9960    6.5870 C   0  0  0
   12.2928   24.0382    7.2999 C   0  0  0
   13.0411   22.8757    7.5119 C   0  0  0
   12.5687   21.6234    6.9954 C   0  0  0
   11.3542   21.6076    6.2719 C   0  0  0
   13.3296   20.3115    7.2109 C   0  0  0
   12.8333   19.2826    6.6971 O   0  5  0
   14.3754   20.3374    7.8965 O   0  0  0
   14.5298   23.0042    8.4061 Cl  0  0  0
    8.8754   21.4179    4.6023 O   0  0  0
    9.1833   23.9060    4.2042 O   0  0  0
    3.4023   23.5127    9.0970 O   0  0  0
    0.6656   21.6685   10.6682 C   0  0  0
   -0.2679   21.9112   11.4693 O   0  5  0
    0.5321   21.2444    9.4973 O   0  0  0
    2.2294   22.9637   11.4265 H   0  0  0
    2.1704   21.3699   12.1177 H   0  0  0
    4.0437   21.0957   10.8931 H   0  0  0
    2.9172   20.4699    9.7278 H   0  0  0
    4.9825   19.8905    9.2992 H   0  0  0
    6.9861   19.0820    8.1295 H   0  0  0
    8.2922   20.6044    6.7110 H   0  0  0
    5.5340   23.7871    7.5750 H   0  0  0
    7.4663   24.1517    6.2290 H   0  0  0
   10.5361   24.9052    6.4282 H   0  0  0
   12.6471   24.9825    7.6922 H   0  0  0
   10.9781   20.6770    5.8672 H   0  0  0
  1  2  1
  1 25  1
  1 28  1
  1 29  1
  2  3  1
  2 30  1
  2 31  1
  3  4  1
  3 24  2
  4  5  1
  4  9  2
  5  6  2
  5 32  1
  6  7  1
  6 33  1
  7  8  2
  7 34  1
  8  9  1
  8 10  1
  9 35  1
 10 11  1
 10 36  1
 11 12  1
 11 22  2
 11 23  2
 12 13  1
 12 17  2
 13 14  2
 13 37  1
 14 15  1
 14 38  1
 15 16  2
 15 21  1
 16 17  1
 16 18  1
 17 39  1
 18 19  1
 18 20  2
 25 26  1
 25 27  2
M  ZZE   1 10,10,0,0,0,0,0,0;0,17,0,17,0,0,0,0,0,0,0
M  ZZE   2 10,10,0,0,0,0,0,0;0,17,0,17,0,0,0,0,0,0,0
M  ZZE   3 10,10,0,0,0,0,0,0;0,17,0,17,0,0,0,0,0,0,0
M  ZZE   4 10,10,0,0,0,0,0,0;0,17,0,17,0,0,0,0,0,0,0
M  ZZE   5 10,10,0,0,0,0,0,0;0,17,0,17,0,0,0,0,0,0,0
M  ZZE   6 10,10,0,0,0,0,0,0;0,17,0,17,0,0,0,0,0,0,0
M  ZZE   7 10,10,0,0,0,0,0,0;0,17,0,17,0,0,0,0,0,0,0
M  ZZE   8 10,10,0,0,0,0,0,0;0,17,0,17,0,0,0,0,0,0,0
M  ZZE   9 10,10,0,0,0,0,0,0;0,17,0,17,0,0,0,0,0,0,0
M  ZZE  10 10,10,0,0,0,0,0,0;0,3,0,3,0,0,0,0,0,0,0
M  ZZE  11 10,10,0,0,0,0,0,0;0,5,0,5,0,0,0,0,0,0,0
M  ZZE  12 10,10,0,0,0,0,0,0;0,17,0,17,0,0,0,0,0,0,0
M  ZZE  13 10,10,0,0,0,0,0,0;0,17,0,17,0,0,0,0,0,0,0
M  ZZE  14 10,10,0,0,0,0,0,0;0,17,0,17,0,0,0,0,0,0,0
M  ZZE  15 10,10,0,0,0,0,0,0;0,17,0,17,0,0,0,0,0,0,0
M  ZZE  16 10,10,0,0,0,0,0,0;0,17,0,17,0,0,0,0,0,0,0
M  ZZE  17 10,10,0,0,0,0,0,0;0,17,0,17,0,0,0,0,0,0,0
M  ZZE  18 10,10,0,0,0,0,0,0;0,17,0,17,0,0,0,0,0,0,0
M  ZZE  19 10,10,0,0,0,0,0,0;0,4,0,4,0,0,0,0,0,0,0
M  ZZE  20 10,10,0,0,0,0,0,0;0,4,0,4,0,0,0,0,0,0,0
M  ZZE  21 10,10,0,0,0,0,0,0;0,101,0,101,0,0,0,0,0,0,0
M  ZZE  22 10,10,0,0,0,0,0,0;0,4,0,4,0,0,0,0,0,0,0
M  ZZE  23 10,10,0,0,0,0,0,0;0,4,0,4,0,0,0,0,0,0,0
M  ZZE  24 10,10,0,0,0,0,0,0;0,4,0,4,0,0,0,0,0,0,0
M  ZZE  25 10,10,0,0,0,0,0,0;0,17,0,17,0,0,0,0,0,0,0
M  ZZE  26 10,10,0,0,0,0,0,0;0,4,0,4,0,0,0,0,0,0,0
M  ZZE  27 10,10,0,0,0,0,0,0;0,4,0,4,0,0,0,0,0,0,0
M  ZZE  28 10,10,0,0,0,0,0,0;1,1,1,1,1,1,1,1,1,1,1
M  ZZE  29 10,10,0,0,0,0,0,0;1,1,1,1,1,1,1,1,1,1,1
M  ZZE  30 10,10,0,0,0,0,0,0;1,1,1,1,1,1,1,1,1,1,1
M  ZZE  31 10,10,0,0,0,0,0,0;1,1,1,1,1,1,1,1,1,1,1
M  ZZE  32 10,10,0,0,0,0,0,0;1,1,1,1,1,1,1,1,1,1,1
M  ZZE  33 10,10,0,0,0,0,0,0;1,1,1,1,1,1,1,1,1,1,1
M  ZZE  34 10,10,0,0,0,0,0,0;1,1,1,1,1,1,1,1,1,1,1
M  ZZE  35 10,10,0,0,0,0,0,0;1,1,1,1,1,1,1,1,1,1,1
M  ZZE  36 10,10,0,0,0,0,0,0;2,2,2,2,2,2,2,2,2,2,2
M  ZZE  37 10,10,0,0,0,0,0,0;1,1,1,1,1,1,1,1,1,1,1
M  ZZE  38 10,10,0,0,0,0,0,0;1,1,1,1,1,1,1,1,1,1,1
M  ZZE  39 10,10,0,0,0,0,0,0;1,1,1,1,1,1,1,1,1,1,1
M  CHG  2  19  -1  26  -1
M  END
> <L>
0

> <N>
459

> <idnumber>
Z1413958135

> <smiles>
C(CC(c1cccc(c1)NS(c1ccc(c(c1)C(O)=O)[Cl])(=O)=O)=O)C(O)=O

> <r_i_docking_score>
-4.150432

> <s_m_entry_id>
1055

> <s_m_entry_name>
glide-dock_SP_1.459

> <CO>
176

> <ord>
101

> <r_pdb_PDB_CRYST1_alpha>
0

> <cl>
29

> <chiral_flag>
0

> <r_pdb_PDB_CRYST1_beta>
0

> <version>
0

> <r_pdb_PDB_CRYST1_gamma>
0

> <i_pdb_PDB_CRYST1_z>
0

> <i_lp_mmshare_version>
45011

> <s_epik_input>
W09IXUMoPU8pW0NIMl1bQ0gyXUMoPU8pYzFbY0hdW2NIXVtjSF1jKFtjSF0xKVtOSF1TKD1PKSg9TyljMltjSF1bY0hdYyhDbCljKFtjSF0yKUMoPU8pW09IXQ==

> <s_epik_cmdline>
J2VwaWtfcHl0aG9uJywgJy1waCcsICc3LjMnLCAnLXRuJywgJzgnLCAnLW1hJywgJzIwMCcsICctaW1hZScsICc8aW5maWxlLm1hZT4nLCAnLW9tYWUnLCAnPG91dGZpbGUubWFlPic=

> <r_epik_Ionization_Penalty>
  0.2326

> <s_m_Source_File>
ligprep_1.sdf

> <i_m_Source_File_Index>
101

> <r_epik_Ionization_Penalty_Charging>
  0.0005

> <r_epik_Ionization_Penalty_Neutral>
  0.2320

> <s_ppw_entry_id_backup>
0

> <r_epik_State_Penalty>
  0.2227

> <r_epik_Charging_Adjusted_Penalty>
0.223254

> <b_ppw_prepared>
0

> <i_epik_Tot_Q>
-2

> <b_ppw_assigned_bond_orders>
0

> <i_epik_Tot_abs_Q>
2

> <s_lp_Force_Field>
OPLS3e

> <b_ppw_added_hydrogens>
0

> <b_ppw_treated_metals>
0

> <r_lp_Energy>
28.663771

> <b_ppw_created_disulfur>
0

> <b_lp_Chiralities_Consistent>
1

> <s_lp_Variant>
C17H14ClNO7S-1

> <b_ppw_deleted_far_waters>
0

> <s_m_job_name>
glide-dock_SP_1

> <r_lp_tautomer_probability>
1

> <b_ppw_ran_protassign>
0

> <i_f3d_flags>
0

> <s_i_glide_gridfile>
glide-grid_1

> <i_i_glide_lignum>
203

> <i_i_glide_rotatable_bonds>
8

> <r_i_glide_ligand_efficiency>
-0.15372

> <r_i_glide_ligand_efficiency_sa>
-0.461159

> <r_i_glide_ligand_efficiency_ln>
-0.966152

> <r_i_glide_gscore>
-4.373132

> <r_i_glide_lipo>
-0.700614

> <r_i_target_temperature>
0

> <r_i_glide_hbond>
-0.803636

> <b_ppw_ran_impref>
0

> <r_i_glide_metal>
0

> <r_i_glide_rewards>
-0.415075

> <i_glide_grid_version>
0

> <r_i_glide_evdw>
-24.826582

> <r_i_glide_ecoul>
-13.950399

> <r_i_glide_erotb>
0.938183

> <r_glide_gridbox_xrange>
0

> <r_i_glide_esite>
-0.0581

> <r_glide_gridbox_yrange>
0

> <r_i_glide_emodel>
-53.338368

> <r_glide_gridbox_zrange>
0

> <r_i_glide_energy>
-38.776981

> <r_i_glide_einternal>
6.496614

> <r_glide_gridbox_ligxrange>
0

> <r_glide_gridbox_ligyrange>
0

> <i_i_glide_confnum>
144

> <i_i_glide_posenum>
676

> <r_glide_gridbox_ligzrange>
0

> <r_i_glide_eff_state_penalty>
0.2227

> <b_glide_receptor>
0

> <r_i_glide_rmsd>
0.374043

> <b_glide_conssat_A_ARG_221_H_hbond_>
0

> <b_glide_conssat_A_ARG_221_HE_hbond_>
0

> <b_glide_conssat_A_TYR_261_HH_hbond_>
1

> <s_m_subgroup_title>
glide-dock_SP_1_pv1

> <s_m_subgroupid>
glide-dock_SP_1_pv1

> <b_m_subgroup_collapsed>
1

> <O>
79

> <CO_1>
197

> <ord_1>
111

> <cl_1>
5

> <ord_2>
1

> <cl_2>
0

> <CO_2>
27

> <cl_3>
1

$$$$
C10H16N2O4
  MOLSOFT 07311911063D

 31 31  0  0  0  0  0  0  0  0999 V2000
    7.5041   17.2188    8.2993 C   0  0  0
    6.2756   17.5811    7.4491 C   0  0  0
    5.7326   16.7121    6.7646 O   0  0  0
    5.8332   18.8708    7.4874 N   0  0  0
    4.6590   19.2663    6.6722 C   0  0  0
    4.4369   20.8019    6.7710 C   0  0  0
    4.3062   21.0963    8.2105 N   0  0  0
    3.2110   21.7620    8.6795 C   0  0  0
    2.3262   22.1985    7.9385 O   0  0  0
    3.1019   21.9515   10.2120 C   0  0  0
    1.7811   22.5535   10.7682 C   0  0  0
    0.5327   21.6476   10.7005 C   0  0  0
    0.5323   20.7215    9.8601 O   0  0  0
   -0.3980   21.9116   11.4965 O   0  5  0
    5.3582   20.6185    9.1382 C   0  0  0
    6.4791   19.8842    8.3532 C   0  0  0
    7.2773   17.2547    9.3626 H   0  0  0
    7.8268   16.2023    8.0715 H   0  0  0
    8.3439   17.8797    8.0865 H   0  0  0
    4.8269   19.0122    5.6249 H   0  0  0
    3.7707   18.7588    7.0518 H   0  0  0
    3.5549   21.0795    6.1920 H   0  0  0
    5.2968   21.3395    6.3686 H   0  0  0
    3.9185   22.6112   10.5031 H   0  0  0
    3.2689   21.0000   10.7163 H   0  0  0
    1.5538   23.5074   10.2968 H   0  0  0
    1.9496   22.7740   11.8224 H   0  0  0
    5.8111   21.4603    9.6650 H   0  0  0
    4.9288   19.9133    9.8443 H   0  0  0
    7.0178   20.5939    7.7234 H   0  0  0
    7.1597   19.4707    9.0913 H   0  0  0
  1  2  1
  1 17  1
  1 18  1
  1 19  1
  2  3  2
  2  4  1
  4  5  1
  4 16  1
  5  6  1
  5 20  1
  5 21  1
  6  7  1
  6 22  1
  6 23  1
  7  8  1
  7 15  1
  8  9  2
  8 10  1
 10 11  1
 10 24  1
 10 25  1
 11 12  1
 11 26  1
 11 27  1
 12 13  2
 12 14  1
 15 16  1
 15 28  1
 15 29  1
 16 30  1
 16 31  1
M  ZZE   1 10,10,0,0,0,0,0,0;0,17,0,17,0,0,0,0,0,0,0
M  ZZE   2 10,10,0,0,0,0,0,0;0,17,0,17,0,0,0,0,0,0,0
M  ZZE   3 10,10,0,0,0,0,0,0;0,4,0,4,0,0,0,0,0,0,0
M  ZZE   4 10,10,0,0,0,0,0,0;0,3,0,3,0,0,0,0,0,0,0
M  ZZE   5 10,10,0,0,0,0,0,0;0,17,0,17,0,0,0,0,0,0,0
M  ZZE   6 10,10,0,0,0,0,0,0;0,17,0,17,0,0,0,0,0,0,0
M  ZZE   7 10,10,0,0,0,0,0,0;0,3,0,3,0,0,0,0,0,0,0
M  ZZE   8 10,10,0,0,0,0,0,0;0,17,0,17,0,0,0,0,0,0,0
M  ZZE   9 10,10,0,0,0,0,0,0;0,4,0,4,0,0,0,0,0,0,0
M  ZZE  10 10,10,0,0,0,0,0,0;0,17,0,17,0,0,0,0,0,0,0
M  ZZE  11 10,10,0,0,0,0,0,0;0,17,0,17,0,0,0,0,0,0,0
M  ZZE  12 10,10,0,0,0,0,0,0;0,17,0,17,0,0,0,0,0,0,0
M  ZZE  13 10,10,0,0,0,0,0,0;0,4,0,4,0,0,0,0,0,0,0
M  ZZE  14 10,10,0,0,0,0,0,0;0,4,0,4,0,0,0,0,0,0,0
M  ZZE  15 10,10,0,0,0,0,0,0;0,17,0,17,0,0,0,0,0,0,0
M  ZZE  16 10,10,0,0,0,0,0,0;0,17,0,17,0,0,0,0,0,0,0
M  ZZE  17 0,0,0,0,0,0,0,0;1,1,1,1,1,1,1,1,1,1,1
M  ZZE  18 0,0,0,0,0,0,0,0;1,1,1,1,1,1,1,1,1,1,1
M  ZZE  19 0,0,0,0,0,0,0,0;1,1,1,1,1,1,1,1,1,1,1
M  ZZE  20 0,0,0,0,0,0,0,0;1,1,1,1,1,1,1,1,1,1,1
M  ZZE  21 0,0,0,0,0,0,0,0;1,1,1,1,1,1,1,1,1,1,1
M  ZZE  22 0,0,0,0,0,0,0,0;1,1,1,1,1,1,1,1,1,1,1
M  ZZE  23 0,0,0,0,0,0,0,0;1,1,1,1,1,1,1,1,1,1,1
M  ZZE  24 0,0,0,0,0,0,0,0;1,1,1,1,1,1,1,1,1,1,1
M  ZZE  25 0,0,0,0,0,0,0,0;1,1,1,1,1,1,1,1,1,1,1
M  ZZE  26 0,0,0,0,0,0,0,0;1,1,1,1,1,1,1,1,1,1,1
M  ZZE  27 0,0,0,0,0,0,0,0;1,1,1,1,1,1,1,1,1,1,1
M  ZZE  28 0,0,0,0,0,0,0,0;1,1,1,1,1,1,1,1,1,1,1
M  ZZE  29 0,0,0,0,0,0,0,0;1,1,1,1,1,1,1,1,1,1,1
M  ZZE  30 0,0,0,0,0,0,0,0;1,1,1,1,1,1,1,1,1,1,1
M  ZZE  31 0,0,0,0,0,0,0,0;1,1,1,1,1,1,1,1,1,1,1
M  CHG  1  14  -1
M  END
> <L>
0

> <N>
1098

> <idnumber>
ZINC386722

> <smiles>
[H]C([H])([H])C(N1C([H])([H])C([H])([H])N(C(C([H])([H])C([H])([H])C([O-])=O)=O)C([H])([H])C1([H])[H])=O

> <r_i_docking_score>
-5.077864

> <s_m_entry_id>
1787

> <s_m_entry_name>
glide-dock_SP_2.122

> <CO>
394

> <ord>
66

> <r_pdb_PDB_CRYST1_alpha>
0

> <cl>
1

> <chiral_flag>
0

> <r_pdb_PDB_CRYST1_beta>
0

> <version>
0

> <r_pdb_PDB_CRYST1_gamma>
0

> <i_pdb_PDB_CRYST1_z>
0

> <i_lp_mmshare_version>
45011

> <s_epik_input>
W0NIM11DKD1PKU4xW0NIMl1bQ0gyXU4oW0NIMl1bQ0gyXTEpQyg9TylbQ0gyXVtDSDJdQyg9TylbT0hd

> <s_epik_cmdline>
J2VwaWtfcHl0aG9uJywgJy1waCcsICc3LjMnLCAnLXRuJywgJzgnLCAnLW1hJywgJzIwMCcsICctaW1hZScsICc8aW5maWxlLm1hZT4nLCAnLW9tYWUnLCAnPG91dGZpbGUubWFlPic=

> <r_epik_Ionization_Penalty>
  0.0023

> <s_m_Source_File>
ligprep_1.sdf

> <i_m_Source_File_Index>
177

> <r_epik_Ionization_Penalty_Charging>
  0.0023

> <r_epik_Ionization_Penalty_Neutral>
  0.0000

> <s_ppw_entry_id_backup>
0

> <r_epik_State_Penalty>
  0.0016

> <r_epik_Charging_Adjusted_Penalty>
0.003878

> <b_ppw_prepared>
0

> <i_epik_Tot_Q>
-1

> <b_ppw_assigned_bond_orders>
0

> <i_epik_Tot_abs_Q>
1

> <s_lp_Force_Field>
OPLS3e

> <b_ppw_added_hydrogens>
0

> <b_ppw_treated_metals>
0

> <r_lp_Energy>
20.255056

> <b_ppw_created_disulfur>
0

> <b_lp_Chiralities_Consistent>
1

> <s_lp_Variant>
C10H16N2O4-1

> <b_ppw_deleted_far_waters>
0

> <s_m_job_name>
glide-dock_SP_2

> <r_lp_tautomer_probability>
0

> <b_ppw_ran_protassign>
0

> <i_f3d_flags>
0

> <s_i_glide_gridfile>
glide-grid_1

> <i_i_glide_lignum>
217

> <i_i_glide_rotatable_bonds>
5

> <r_i_glide_ligand_efficiency>
-0.317367

> <r_i_glide_ligand_efficiency_sa>
-0.799713

> <r_i_glide_ligand_efficiency_ln>
-1.345989

> <r_i_glide_gscore>
-5.079464

> <r_i_glide_lipo>
-0.428412

> <r_i_target_temperature>
0

> <r_i_glide_hbond>
-0.48

> <b_ppw_ran_impref>
0

> <r_i_glide_metal>
0

> <r_i_glide_rewards>
-2.278654

> <i_glide_grid_version>
0

> <r_i_glide_evdw>
-18.381237

> <r_i_glide_ecoul>
-14.986732

> <r_i_glide_erotb>
1.317906

> <r_glide_gridbox_xrange>
0

> <r_i_glide_esite>
-0.043233

> <r_glide_gridbox_yrange>
0

> <r_i_glide_emodel>
-49.659234

> <r_glide_gridbox_zrange>
0

> <r_i_glide_energy>
-33.36797

> <r_i_glide_einternal>
1.734621

> <r_glide_gridbox_ligxrange>
0

> <r_glide_gridbox_ligyrange>
0

> <i_i_glide_confnum>
81

> <i_i_glide_posenum>
494

> <r_glide_gridbox_ligzrange>
0

> <r_i_glide_eff_state_penalty>
0.0016

> <b_glide_receptor>
0

> <r_i_glide_rmsd>
0.31994

> <b_glide_conssat_A_ARG_221_H_hbond_>
0

> <b_glide_conssat_A_ARG_221_HE_hbond_>
0

> <b_glide_conssat_A_TYR_261_HH_hbond_>
1

> <s_m_subgroup_title>
glide-dock_SP_2_pv1

> <s_m_subgroupid>
glide-dock_SP_2_pv1

> <b_m_subgroup_collapsed>
1

> <O>
80

> <CO_1>
3

> <ord_1>
1

> <cl_1>
0

> <ord_2>
0

> <cl_2>
0

> <CO_2>
0

> <cl_3>
0

$$$$
C9H14N2O4
  MOLSOFT 07311911063D

 28 28  0  0  1  0  0  0  0  0999 V2000
    5.2158   25.3575    7.8967 N   0  0  0
    5.8745   24.2128    7.7159 C   0  0  0
    7.0870   24.1262    7.8967 O   0  0  0
    5.0520   22.9769    7.2734 C   0  0  1
    5.8526   21.9788    6.4129 C   0  0  0
    6.4523   21.0033    7.4158 C   0  0  0
    5.3617   20.8836    8.4741 C   0  0  0
    4.6076   22.1406    8.4054 N   0  0  0
    3.5767   22.4665    9.2208 C   0  0  0
    2.9323   23.5117    9.0966 O   0  0  0
    3.2248   21.4596   10.3401 C   0  0  0
    2.0542   21.8611   11.2824 C   0  0  0
    0.6350   21.6006   10.7399 C   0  0  0
    0.5322   21.1119    9.5905 O   0  0  0
   -0.3182   21.8969   11.4965 O   0  5  0
    5.7141   26.1916    8.1894 H   0  0  0
    4.2175   25.3969    7.7681 H   0  0  0
    4.1914   23.3203    6.6958 H   0  0  0
    6.6112   22.4520    5.7875 H   0  0  0
    5.1695   21.4477    5.7483 H   0  0  0
    7.3458   21.4428    7.8626 H   0  0  0
    6.7367   20.0465    6.9771 H   0  0  0
    5.7909   20.7002    9.4605 H   0  0  0
    4.6940   20.0556    8.2300 H   0  0  0
    4.1138   21.3466   10.9614 H   0  0  0
    3.0289   20.4789    9.9038 H   0  0  0
    2.1308   22.9140   11.5567 H   0  0  0
    2.1447   21.2982   12.2126 H   0  0  0
  1  2  1
  1 16  1
  1 17  1
  2  3  2
  4  2  1
  4  5  1
  4  8  1
  4 18  1
  5  6  1
  5 19  1
  5 20  1
  6  7  1
  6 21  1
  6 22  1
  7  8  1
  7 23  1
  7 24  1
  8  9  1
  9 10  2
  9 11  1
 11 12  1
 11 25  1
 11 26  1
 12 13  1
 12 27  1
 12 28  1
 13 14  2
 13 15  1
M  ZZE   1 10,10,0,0,0,0,0,0;0,3,0,3,0,0,0,0,0,0,0
M  ZZE   2 10,10,0,0,0,0,0,0;0,17,0,17,0,0,0,0,0,0,0
M  ZZE   3 10,10,0,0,0,0,0,0;0,4,0,4,0,0,0,0,0,0,0
M  ZZE   4 10,10,0,0,0,0,0,0;0,17,0,17,0,0,0,0,0,0,0
M  ZZE   5 10,10,0,0,0,0,0,0;0,17,0,17,0,0,0,0,0,0,0
M  ZZE   6 10,10,0,0,0,0,0,0;0,17,0,17,0,0,0,0,0,0,0
M  ZZE   7 10,10,0,0,0,0,0,0;0,17,0,17,0,0,0,0,0,0,0
M  ZZE   8 10,10,0,0,0,0,0,0;0,3,0,3,0,0,0,0,0,0,0
M  ZZE   9 10,10,0,0,0,0,0,0;0,17,0,17,0,0,0,0,0,0,0
M  ZZE  10 10,10,0,0,0,0,0,0;0,4,0,4,0,0,0,0,0,0,0
M  ZZE  11 10,10,0,0,0,0,0,0;0,17,0,17,0,0,0,0,0,0,0
M  ZZE  12 10,10,0,0,0,0,0,0;0,17,0,17,0,0,0,0,0,0,0
M  ZZE  13 10,10,0,0,0,0,0,0;0,17,0,17,0,0,0,0,0,0,0
M  ZZE  14 10,10,0,0,0,0,0,0;0,4,0,4,0,0,0,0,0,0,0
M  ZZE  15 10,10,0,0,0,0,0,0;0,4,0,4,0,0,0,0,0,0,0
M  ZZE  16 10,10,0,0,0,0,0,0;2,2,2,2,2,2,2,2,2,2,2
M  ZZE  17 10,10,0,0,0,0,0,0;2,2,2,2,2,2,2,2,2,2,2
M  ZZE  18 0,0,0,0,0,0,0,0;1,1,1,1,1,1,1,1,1,1,1
M  ZZE  19 0,0,0,0,0,0,0,0;1,1,1,1,1,1,1,1,1,1,1
M  ZZE  20 0,0,0,0,0,0,0,0;1,1,1,1,1,1,1,1,1,1,1
M  ZZE  21 0,0,0,0,0,0,0,0;1,1,1,1,1,1,1,1,1,1,1
M  ZZE  22 0,0,0,0,0,0,0,0;1,1,1,1,1,1,1,1,1,1,1
M  ZZE  23 0,0,0,0,0,0,0,0;1,1,1,1,1,1,1,1,1,1,1
M  ZZE  24 0,0,0,0,0,0,0,0;1,1,1,1,1,1,1,1,1,1,1
M  ZZE  25 0,0,0,0,0,0,0,0;1,1,1,1,1,1,1,1,1,1,1
M  ZZE  26 0,0,0,0,0,0,0,0;1,1,1,1,1,1,1,1,1,1,1
M  ZZE  27 0,0,0,0,0,0,0,0;1,1,1,1,1,1,1,1,1,1,1
M  ZZE  28 0,0,0,0,0,0,0,0;1,1,1,1,1,1,1,1,1,1,1
M  CHG  1  15  -1
M  END
> <L>
0

> <N>
1073

> <idnumber>
ZINC376528

> <smiles>
[H]C([H])(C([O-])=O)C([H])([H])C(N1C([H])([H])C([H])([H])C([H])([H])[C@]1([H])C(N([H])[H])=O)=O

> <r_i_docking_score>
-4.975019

> <s_m_entry_id>
1812

> <s_m_entry_name>
glide-dock_SP_2.147

> <CO>
0

> <ord>
0

> <r_pdb_PDB_CRYST1_alpha>
0

> <cl>
1

> <chiral_flag>
1

> <r_pdb_PDB_CRYST1_beta>
0

> <version>
0

> <r_pdb_PDB_CRYST1_gamma>
0

> <i_pdb_PDB_CRYST1_z>
0

> <i_lp_mmshare_version>
45011

> <s_epik_input>
W05IMl1DKD1PKVtDQEhdMVtDSDJdW0NIMl1bQ0gyXU4xQyg9TylbQ0gyXVtDSDJdQyg9TylbT0hd

> <s_epik_cmdline>
J2VwaWtfcHl0aG9uJywgJy1waCcsICc3LjMnLCAnLXRuJywgJzgnLCAnLW1hJywgJzIwMCcsICctaW1hZScsICc8aW5maWxlLm1hZT4nLCAnLW9tYWUnLCAnPG91dGZpbGUubWFlPic=

> <r_epik_Ionization_Penalty>
  0.0019

> <s_m_Source_File>
ligprep_1.sdf

> <i_m_Source_File_Index>
192

> <r_epik_Ionization_Penalty_Charging>
  0.0019

> <r_epik_Ionization_Penalty_Neutral>
  0.0000

> <s_ppw_entry_id_backup>
0

> <r_epik_State_Penalty>
  0.0013

> <r_epik_Charging_Adjusted_Penalty>
0.003213

> <b_ppw_prepared>
0

> <i_epik_Tot_Q>
-1

> <b_ppw_assigned_bond_orders>
0

> <i_epik_Tot_abs_Q>
1

> <s_lp_Force_Field>
OPLS3e

> <b_ppw_added_hydrogens>
0

> <b_ppw_treated_metals>
0

> <r_lp_Energy>
11.374253

> <b_ppw_created_disulfur>
0

> <b_lp_Chiralities_Consistent>
1

> <s_lp_Variant>
C9H14N2O4-1

> <b_ppw_deleted_far_waters>
0

> <s_m_job_name>
glide-dock_SP_2

> <r_lp_tautomer_probability>
0

> <b_ppw_ran_protassign>
0

> <i_f3d_flags>
0

> <s_i_glide_gridfile>
glide-grid_1

> <i_i_glide_lignum>
234

> <i_i_glide_rotatable_bonds>
5

> <r_i_glide_ligand_efficiency>
-0.331668

> <r_i_glide_ligand_efficiency_sa>
-0.817963

> <r_i_glide_ligand_efficiency_ln>
-1.34168

> <r_i_glide_gscore>
-4.976319

> <r_i_glide_lipo>
-0.542873

> <r_i_target_temperature>
0

> <r_i_glide_hbond>
-0.568109

> <b_ppw_ran_impref>
0

> <r_i_glide_metal>
0

> <r_i_glide_rewards>
-2.334445

> <i_glide_grid_version>
0

> <r_i_glide_evdw>
-19.369476

> <r_i_glide_ecoul>
-12.964515

> <r_i_glide_erotb>
1.46751

> <r_glide_gridbox_xrange>
0

> <r_i_glide_esite>
-0.085251

> <r_glide_gridbox_yrange>
0

> <r_i_glide_emodel>
-49.101273

> <r_glide_gridbox_zrange>
0

> <r_i_glide_energy>
-32.333991

> <r_i_glide_einternal>
0.619466

> <r_glide_gridbox_ligxrange>
0

> <r_glide_gridbox_ligyrange>
0

> <i_i_glide_confnum>
32

> <i_i_glide_posenum>
711

> <r_glide_gridbox_ligzrange>
0

> <r_i_glide_eff_state_penalty>
0.0013

> <b_glide_receptor>
0

> <r_i_glide_rmsd>
0.286236

> <b_glide_conssat_A_ARG_221_H_hbond_>
0

> <b_glide_conssat_A_ARG_221_HE_hbond_>
0

> <b_glide_conssat_A_TYR_261_HH_hbond_>
1

> <s_m_subgroup_title>
glide-dock_SP_2_pv1

> <s_m_subgroupid>
glide-dock_SP_2_pv1

> <b_m_subgroup_collapsed>
1

> <O>
81

> <CO_1>
7

> <ord_1>
2

> <cl_1>
0

> <ord_2>
0

> <cl_2>
0

> <CO_2>
0

> <cl_3>
0

$$$$
C9H12N2O3S
  MOLSOFT 07311911063D

 26 26  0  0  0  0  0  0  0  0999 V2000
    7.8355   26.1089    7.7110 C   0  0  0
    8.3035   24.3581    7.5633 S   0  0  0
    6.7347   23.5398    7.8965 C   0  0  0
    6.7389   22.2952    8.2250 N   0  0  0
    5.5735   21.6667    8.5293 C   0  0  0
    5.7658   20.2162    8.9437 C   0  0  0
    4.3759   22.2808    8.4684 C   0  0  0
    3.0413   21.5880    8.7867 C   0  0  0
    2.3907   21.9924   10.1452 C   0  0  0
    0.9473   21.4696   10.3136 C   0  0  0
    0.5317   20.6595    9.4596 O   0  0  0
    0.2908   21.9007   11.2897 O   0  5  0
    4.2918   23.6747    8.0516 C   0  0  0
    3.2461   24.3122    7.9321 O   0  0  0
    5.5289   24.2094    7.8016 N   0  0  0
    8.7263   26.7400    7.6060 H   0  0  0
    7.1278   26.3954    6.9231 H   0  0  0
    7.3864   26.3122    8.6910 H   0  0  0
    5.2438   20.0449    9.8877 H   0  0  0
    5.3564   19.5506    8.1844 H   0  0  0
    6.8260   19.9565    9.0935 H   0  0  0
    3.1530   20.5053    8.7561 H   0  0  0
    2.3459   21.8182    7.9719 H   0  0  0
    2.3709   23.0800   10.2597 H   0  0  0
    2.9938   21.6014   10.9682 H   0  0  0
    5.5378   25.1764    7.5235 H   0  0  0
  1  2  1
  1 16  1
  1 17  1
  1 18  1
  2  3  1
  3  4  2
  3 15  1
  4  5  1
  5  6  1
  5  7  2
  6 19  1
  6 20  1
  6 21  1
  7  8  1
  7 13  1
  8  9  1
  8 22  1
  8 23  1
  9 10  1
  9 24  1
  9 25  1
 10 11  2
 10 12  1
 13 14  2
 13 15  1
 15 26  1
M  ZZE   1 10,10,0,0,0,0,0,0;0,17,0,17,0,0,0,0,0,0,0
M  ZZE   2 10,10,0,0,0,0,0,0;0,5,0,5,0,0,0,0,0,0,0
M  ZZE   3 10,10,0,0,0,0,0,0;0,17,0,17,0,0,0,0,0,0,0
M  ZZE   4 10,10,0,0,0,0,0,0;0,3,0,3,0,0,0,0,0,0,0
M  ZZE   5 10,10,0,0,0,0,0,0;0,17,0,17,0,0,0,0,0,0,0
M  ZZE   6 10,10,0,0,0,0,0,0;0,17,0,17,0,0,0,0,0,0,0
M  ZZE   7 10,10,0,0,0,0,0,0;0,17,0,17,0,0,0,0,0,0,0
M  ZZE   8 10,10,0,0,0,0,0,0;0,17,0,17,0,0,0,0,0,0,0
M  ZZE   9 10,10,0,0,0,0,0,0;0,17,0,17,0,0,0,0,0,0,0
M  ZZE  10 10,10,0,0,0,0,0,0;0,17,0,17,0,0,0,0,0,0,0
M  ZZE  11 10,10,0,0,0,0,0,0;0,4,0,4,0,0,0,0,0,0,0
M  ZZE  12 10,10,0,0,0,0,0,0;0,4,0,4,0,0,0,0,0,0,0
M  ZZE  13 10,10,0,0,0,0,0,0;0,17,0,17,0,0,0,0,0,0,0
M  ZZE  14 10,10,0,0,0,0,0,0;0,4,0,4,0,0,0,0,0,0,0
M  ZZE  15 10,10,0,0,0,0,0,0;0,3,0,3,0,0,0,0,0,0,0
M  ZZE  16 0,0,0,0,0,0,0,0;1,1,1,1,1,1,1,1,1,1,1
M  ZZE  17 0,0,0,0,0,0,0,0;1,1,1,1,1,1,1,1,1,1,1
M  ZZE  18 0,0,0,0,0,0,0,0;1,1,1,1,1,1,1,1,1,1,1
M  ZZE  19 0,0,0,0,0,0,0,0;1,1,1,1,1,1,1,1,1,1,1
M  ZZE  20 0,0,0,0,0,0,0,0;1,1,1,1,1,1,1,1,1,1,1
M  ZZE  21 0,0,0,0,0,0,0,0;1,1,1,1,1,1,1,1,1,1,1
M  ZZE  22 0,0,0,0,0,0,0,0;1,1,1,1,1,1,1,1,1,1,1
M  ZZE  23 0,0,0,0,0,0,0,0;1,1,1,1,1,1,1,1,1,1,1
M  ZZE  24 0,0,0,0,0,0,0,0;1,1,1,1,1,1,1,1,1,1,1
M  ZZE  25 0,0,0,0,0,0,0,0;1,1,1,1,1,1,1,1,1,1,1
M  ZZE  26 10,10,0,0,0,0,0,0;2,2,2,2,2,2,2,2,2,2,2
M  CHG  1  12  -1
M  END
> <L>
0

> <N>
992

> <idnumber>
ZINC9517200

> <smiles>
[H]C([H])([H])C1=C(C(N([H])C(=N1)SC([H])([H])[H])=O)C([H])([H])C([H])([H])C([O-])=O

> <r_i_docking_score>
-4.684223

> <s_m_entry_id>
1893

> <s_m_entry_name>
glide-dock_SP_2.228

> <CO>
358

> <ord>
365

> <r_pdb_PDB_CRYST1_alpha>
0

> <cl>
2

> <chiral_flag>
0

> <r_pdb_PDB_CRYST1_beta>
0

> <version>
0

> <r_pdb_PDB_CRYST1_gamma>
0

> <i_pdb_PDB_CRYST1_z>
0

> <i_lp_mmshare_version>
45011

> <s_epik_input>
W0NIM11TYzFuYyhbQ0gzXSljKGMoPU8pW25IXTEpW0NIMl1bQ0gyXUMoPU8pW09IXQ==

> <s_epik_cmdline>
J2VwaWtfcHl0aG9uJywgJy1waCcsICc3LjMnLCAnLXRuJywgJzgnLCAnLW1hJywgJzIwMCcsICctaW1hZScsICc8aW5maWxlLm1hZT4nLCAnLW9tYWUnLCAnPG91dGZpbGUubWFlPic=

> <r_epik_Ionization_Penalty>
  0.0140

> <s_m_Source_File>
ligprep_1.sdf

> <i_m_Source_File_Index>
97

> <r_epik_Ionization_Penalty_Charging>
  0.0140

> <r_epik_Ionization_Penalty_Neutral>
  0.0000

> <s_ppw_entry_id_backup>
0

> <r_epik_State_Penalty>
  0.1637

> <r_epik_Charging_Adjusted_Penalty>
0.177681

> <b_ppw_prepared>
0

> <i_epik_Tot_Q>
-1

> <b_ppw_assigned_bond_orders>
0

> <i_epik_Tot_abs_Q>
1

> <s_lp_Force_Field>
OPLS3e

> <b_ppw_added_hydrogens>
0

> <b_ppw_treated_metals>
0

> <r_lp_Energy>
-2.355451

> <b_ppw_created_disulfur>
0

> <b_lp_Chiralities_Consistent>
1

> <s_lp_Variant>
C9H12N2O3S-1

> <b_ppw_deleted_far_waters>
0

> <s_m_job_name>
glide-dock_SP_2

> <r_lp_tautomer_probability>
1

> <b_ppw_ran_protassign>
0

> <i_f3d_flags>
0

> <s_i_glide_gridfile>
glide-grid_1

> <i_i_glide_lignum>
121

> <i_i_glide_rotatable_bonds>
4

> <r_i_glide_ligand_efficiency>
-0.312282

> <r_i_glide_ligand_efficiency_sa>
-0.770152

> <r_i_glide_ligand_efficiency_ln>
-1.263258

> <r_i_glide_gscore>
-4.847923

> <r_i_glide_lipo>
-0.41445

> <r_i_target_temperature>
0

> <r_i_glide_hbond>
-0.41723

> <b_ppw_ran_impref>
0

> <r_i_glide_metal>
0

> <r_i_glide_rewards>
-2.289632

> <i_glide_grid_version>
0

> <r_i_glide_evdw>
-20.030107

> <r_i_glide_ecoul>
-11.363979

> <r_i_glide_erotb>
0.988251

> <r_glide_gridbox_xrange>
0

> <r_i_glide_esite>
-0.00876

> <r_glide_gridbox_yrange>
0

> <r_i_glide_emodel>
-45.316909

> <r_glide_gridbox_zrange>
0

> <r_i_glide_energy>
-31.394087

> <r_i_glide_einternal>
1.979778

> <r_glide_gridbox_ligxrange>
0

> <r_glide_gridbox_ligyrange>
0

> <i_i_glide_confnum>
3

> <i_i_glide_posenum>
622

> <r_glide_gridbox_ligzrange>
0

> <r_i_glide_eff_state_penalty>
0.1637

> <b_glide_receptor>
0

> <r_i_glide_rmsd>
0.5808

> <b_glide_conssat_A_ARG_221_H_hbond_>
0

> <b_glide_conssat_A_ARG_221_HE_hbond_>
0

> <b_glide_conssat_A_TYR_261_HH_hbond_>
1

> <s_m_subgroup_title>
glide-dock_SP_2_pv1

> <s_m_subgroupid>
glide-dock_SP_2_pv1

> <b_m_subgroup_collapsed>
1

> <O>
82

> <CO_1>
4

> <ord_1>
3

> <cl_1>
0

> <ord_2>
0

> <cl_2>
0

> <CO_2>
0

> <cl_3>
0

$$$$
C5H6N2O2S
  MOLSOFT 07311911063D

 15 15  0  0  0  0  0  0  0  0999 V2000
    4.5115   24.6670    7.8990 N   0  0  0
    4.0444   23.5029    8.4369 C   0  0  0
    3.2787   23.4370    9.4909 N   0  0  0
    2.9643   22.1876    9.8096 C   0  0  0
    2.0722   21.9686   11.0271 C   0  0  0
    0.6172   21.6263   10.6561 C   0  0  0
    0.4201   21.0893    9.5427 O   0  0  0
   -0.2671   21.9100   11.4967 O   0  5  0
    3.5298   21.2403    8.9438 C   0  0  0
    4.4761   22.0086    7.7042 S   0  0  0
    4.3035   25.5653    8.3104 H   0  0  0
    5.1079   24.6709    7.0830 H   0  0  0
    2.0844   22.8419   11.6799 H   0  0  0
    2.4572   21.1453   11.6284 H   0  0  0
    3.4277   20.1677    8.9769 H   0  0  0
  1  2  1
  1 11  1
  1 12  1
  2  3  2
  2 10  1
  3  4  1
  4  5  1
  4  9  2
  5  6  1
  5 13  1
  5 14  1
  6  7  2
  6  8  1
  9 10  1
  9 15  1
M  ZZE   1 10,10,0,0,0,0,0,0;0,3,0,3,0,0,0,0,0,0,0
M  ZZE   2 10,10,0,0,0,0,0,0;0,17,0,17,0,0,0,0,0,0,0
M  ZZE   3 10,10,0,0,0,0,0,0;0,3,0,3,0,0,0,0,0,0,0
M  ZZE   4 10,10,0,0,0,0,0,0;0,17,0,17,0,0,0,0,0,0,0
M  ZZE   5 10,10,0,0,0,0,0,0;0,17,0,17,0,0,0,0,0,0,0
M  ZZE   6 10,10,0,0,0,0,0,0;0,17,0,17,0,0,0,0,0,0,0
M  ZZE   7 10,10,0,0,0,0,0,0;0,4,0,4,0,0,0,0,0,0,0
M  ZZE   8 10,10,0,0,0,0,0,0;0,4,0,4,0,0,0,0,0,0,0
M  ZZE   9 10,10,0,0,0,0,0,0;0,17,0,17,0,0,0,0,0,0,0
M  ZZE  10 10,10,0,0,0,0,0,0;0,5,0,5,0,0,0,0,0,0,0
M  ZZE  11 10,10,0,0,0,0,0,0;2,2,2,2,2,2,2,2,2,2,2
M  ZZE  12 10,10,0,0,0,0,0,0;2,2,2,2,2,2,2,2,2,2,2
M  ZZE  13 0,0,0,0,0,0,0,0;1,1,1,1,1,1,1,1,1,1,1
M  ZZE  14 0,0,0,0,0,0,0,0;1,1,1,1,1,1,1,1,1,1,1
M  ZZE  15 0,0,0,0,0,0,0,0;1,1,1,1,1,1,1,1,1,1,1
M  CHG  1   8  -1
M  END
> <L>
0

> <N>
822

> <idnumber>
ZINC155667

> <smiles>
[H]c1c(C([H])([H])C([O-])=O)nc(N([H])[H])s1

> <r_i_docking_score>
-4.266119

> <s_m_entry_id>
2063

> <s_m_entry_name>
glide-dock_SP_2.398

> <CO>
314

> <ord>
382

> <r_pdb_PDB_CRYST1_alpha>
0

> <cl>
3

> <chiral_flag>
0

> <r_pdb_PDB_CRYST1_beta>
0

> <version>
0

> <r_pdb_PDB_CRYST1_gamma>
0

> <i_pdb_PDB_CRYST1_z>
0

> <i_lp_mmshare_version>
45011

> <s_epik_input>
W05IMl1jMW5jKFtjSF1zMSlbQ0gyXUMoPU8pW09IXQ==

> <s_epik_cmdline>
J2VwaWtfcHl0aG9uJywgJy1waCcsICc3LjMnLCAnLXRuJywgJzgnLCAnLW1hJywgJzIwMCcsICctaW1hZScsICc8aW5maWxlLm1hZT4nLCAnLW9tYWUnLCAnPG91dGZpbGUubWFlPic=

> <r_epik_Ionization_Penalty>
  0.0306

> <s_m_Source_File>
ligprep_1.sdf

> <i_m_Source_File_Index>
304

> <r_epik_Ionization_Penalty_Charging>
  0.0004

> <r_epik_Ionization_Penalty_Neutral>
  0.0303

> <s_ppw_entry_id_backup>
0

> <r_epik_State_Penalty>
  0.0250

> <r_epik_Charging_Adjusted_Penalty>
0.025321

> <b_ppw_prepared>
0

> <i_epik_Tot_Q>
-1

> <b_ppw_assigned_bond_orders>
0

> <i_epik_Tot_abs_Q>
1

> <s_lp_Force_Field>
OPLS3e

> <b_ppw_added_hydrogens>
0

> <b_ppw_treated_metals>
0

> <r_lp_Energy>
0.15215

> <b_ppw_created_disulfur>
0

> <b_lp_Chiralities_Consistent>
1

> <s_lp_Variant>
C5H6N2O2S-1

> <b_ppw_deleted_far_waters>
0

> <s_m_job_name>
glide-dock_SP_2

> <r_lp_tautomer_probability>
0

> <b_ppw_ran_protassign>
0

> <i_f3d_flags>
0

> <s_i_glide_gridfile>
glide-grid_1

> <i_i_glide_lignum>
357

> <i_i_glide_rotatable_bonds>
2

> <r_i_glide_ligand_efficiency>
-0.426612

> <r_i_glide_ligand_efficiency_sa>
-0.919107

> <r_i_glide_ligand_efficiency_ln>
-1.291751

> <r_i_glide_gscore>
-4.291119

> <r_i_glide_lipo>
-0.282445

> <r_i_target_temperature>
0

> <r_i_glide_hbond>
-0.442332

> <b_ppw_ran_impref>
0

> <r_i_glide_metal>
0

> <r_i_glide_rewards>
-2.600059

> <i_glide_grid_version>
0

> <r_i_glide_evdw>
-14.480547

> <r_i_glide_ecoul>
-9.437929

> <r_i_glide_erotb>
1.212271

> <r_glide_gridbox_xrange>
0

> <r_i_glide_esite>
-0.038838

> <r_glide_gridbox_yrange>
0

> <r_i_glide_emodel>
-34.978792

> <r_glide_gridbox_zrange>
0

> <r_i_glide_energy>
-23.918476

> <r_i_glide_einternal>
0.184302

> <r_glide_gridbox_ligxrange>
0

> <r_glide_gridbox_ligyrange>
0

> <i_i_glide_confnum>
5

> <i_i_glide_posenum>
379

> <r_glide_gridbox_ligzrange>
0

> <r_i_glide_eff_state_penalty>
0.025

> <b_glide_receptor>
0

> <r_i_glide_rmsd>
0.303003

> <b_glide_conssat_A_ARG_221_H_hbond_>
0

> <b_glide_conssat_A_ARG_221_HE_hbond_>
0

> <b_glide_conssat_A_TYR_261_HH_hbond_>
1

> <s_m_subgroup_title>
glide-dock_SP_2_pv1

> <s_m_subgroupid>
glide-dock_SP_2_pv1

> <b_m_subgroup_collapsed>
1

> <O>
83

> <CO_1>
5

> <ord_1>
4

> <cl_1>
0

> <ord_2>
0

> <cl_2>
0

> <CO_2>
0

> <cl_3>
0

$$$$
C11H9NO3
  MOLSOFT 07311911062D

 15 16  0  0  0  0  0  0  0  0999 V2000
   -1.4000   -2.4249    0.0000 O   0  0  0
   -2.1000   -1.2124    0.0000 C   0  0  0
   -3.5000   -1.2124    0.0000 O   0  0  0
   -1.4000    0.0000    0.0000 C   0  0  0
    0.0000    0.0000    0.0000 N   0  0  0
    0.7000    1.2124    0.0000 C   0  0  0
    2.1000    1.2124    0.0000 C   0  0  0
    2.8000   -0.0000    0.0000 C   0  0  0
    4.2000   -0.0000    0.0000 C   0  0  0
    4.9000   -1.2124    0.0000 C   0  0  0
    4.2000   -2.4249    0.0000 C   0  0  0
    2.8000   -2.4249    0.0000 C   0  0  0
    2.1000   -1.2124    0.0000 C   0  0  0
    0.7000   -1.2124    0.0000 C   0  0  0
   -0.0000   -2.4249    0.0000 O   0  0  0
  1  2  1
  2  3  2
  2  4  1
  4  5  1
  5  6  1
  6  7  2
  7  8  1
  8  9  2
  9 10  1
 10 11  2
 11 12  1
 13  8  1
 12 13  2
 14  5  1
 13 14  1
 14 15  2
M  ZZE   1 10,10,0,0,0,0,0,0;0,4,0,4,0,0,0,0,0,0,0
M  ZZE   2 10,10,0,0,0,0,0,0;0,17,0,17,0,0,0,0,0,0,0
M  ZZE   3 10,10,0,0,0,0,0,0;0,4,0,4,0,0,0,0,0,0,0
M  ZZE   4 10,10,0,0,0,0,0,0;0,17,0,17,0,0,0,0,0,0,0
M  ZZE   5 10,10,0,0,0,0,0,0;0,3,0,3,0,0,0,0,0,0,0
M  ZZE   6 10,10,0,0,0,0,0,0;0,17,0,17,0,0,0,0,0,0,0
M  ZZE   7 10,10,0,0,0,0,0,0;0,17,0,17,0,0,0,0,0,0,0
M  ZZE   8 10,10,0,0,0,0,0,0;0,17,0,17,0,0,0,0,0,0,0
M  ZZE   9 10,10,0,0,0,0,0,0;0,17,0,17,0,0,0,0,0,0,0
M  ZZE  10 10,10,0,0,0,0,0,0;0,17,0,17,0,0,0,0,0,0,0
M  ZZE  11 10,10,0,0,0,0,0,0;0,17,0,17,0,0,0,0,0,0,0
M  ZZE  12 10,10,0,0,0,0,0,0;0,17,0,17,0,0,0,0,0,0,0
M  ZZE  13 10,10,0,0,0,0,0,0;0,17,0,17,0,0,0,0,0,0,0
M  ZZE  14 10,10,0,0,0,0,0,0;0,17,0,17,0,0,0,0,0,0,0
M  ZZE  15 10,10,0,0,0,0,0,0;0,4,0,4,0,0,0,0,0,0,0
M  END
> <L>
0

> <N>
0

> <idnumber>
CAS: 59139-93-4

> <s_m_entry_id>
0

> <CO>
0

> <ord>
0

> <r_pdb_PDB_CRYST1_alpha>
0

> <cl>
0

> <chiral_flag>
0

> <r_pdb_PDB_CRYST1_beta>
0

> <version>
0

> <r_pdb_PDB_CRYST1_gamma>
0

> <i_pdb_PDB_CRYST1_z>
0

> <i_lp_mmshare_version>
0

> <i_m_Source_File_Index>
0

> <s_ppw_entry_id_backup>
0

> <b_ppw_prepared>
0

> <i_epik_Tot_Q>
0

> <b_ppw_assigned_bond_orders>
0

> <i_epik_Tot_abs_Q>
0

> <b_ppw_added_hydrogens>
0

> <b_ppw_treated_metals>
0

> <b_ppw_created_disulfur>
0

> <b_lp_Chiralities_Consistent>
0

> <b_ppw_deleted_far_waters>
0

> <r_lp_tautomer_probability>
0

> <b_ppw_ran_protassign>
0

> <i_f3d_flags>
0

> <i_i_glide_lignum>
0

> <i_i_glide_rotatable_bonds>
0

> <r_i_target_temperature>
0

> <b_ppw_ran_impref>
0

> <r_i_glide_metal>
0

> <i_glide_grid_version>
0

> <r_glide_gridbox_xrange>
0

> <r_glide_gridbox_yrange>
0

> <r_glide_gridbox_zrange>
0

> <r_glide_gridbox_ligxrange>
0

> <r_glide_gridbox_ligyrange>
0

> <i_i_glide_confnum>
0

> <i_i_glide_posenum>
0

> <r_glide_gridbox_ligzrange>
0

> <b_glide_receptor>
0

> <b_glide_conssat_A_ARG_221_H_hbond_>
0

> <b_glide_conssat_A_ARG_221_HE_hbond_>
0

> <b_glide_conssat_A_TYR_261_HH_hbond_>
0

> <b_m_subgroup_collapsed>
0

> <O>
84

> <CO_1>
0

> <ord_1>
0

> <cl_1>
0

> <ord_2>
0

> <cl_2>
0

> <CO_2>
0

> <cl_3>
0

$$$$
C10H9NO3
  MOLSOFT 07311911062D

 14 15  0  0  0  0  0  0  0  0999 V2000
   -0.0000   -0.0000    0.0000 C   0  0  0
    0.8229    1.1326    0.0000 C   0  0  0
    0.5318    2.5020    0.0000 C   0  0  0
    1.5722    3.4388    0.0000 C   0  0  0
    2.9037    3.0062    0.0000 C   0  0  0
    3.1948    1.6368    0.0000 C   0  0  0
    2.1544    0.7000    0.0000 C   0  0  0
    2.1544   -0.7000    0.0000 C   0  0  0
    3.2870   -1.5229    0.0000 O   0  0  0
    0.8229   -1.1326    0.0000 N   0  0  0
    0.3903   -2.4641    0.0000 C   0  0  0
    1.3271   -3.5045    0.0000 C   0  0  0
    2.6965   -3.2134    0.0000 O   0  0  0
    0.8944   -4.8360    0.0000 O   0  0  0
  1  2  1
  2  3  2
  3  4  1
  4  5  2
  5  6  1
  7  2  1
  6  7  2
  7  8  1
  8  9  2
 10  1  1
  8 10  1
 10 11  1
 11 12  1
 12 13  2
 12 14  1
M  ZZE   1 10,10,0,0,0,0,0,0;0,17,0,17,0,0,0,0,0,0,0
M  ZZE   2 10,10,0,0,0,0,0,0;0,17,0,17,0,0,0,0,0,0,0
M  ZZE   3 10,10,0,0,0,0,0,0;0,17,0,17,0,0,0,0,0,0,0
M  ZZE   4 10,10,0,0,0,0,0,0;0,17,0,17,0,0,0,0,0,0,0
M  ZZE   5 10,10,0,0,0,0,0,0;0,17,0,17,0,0,0,0,0,0,0
M  ZZE   6 10,10,0,0,0,0,0,0;0,17,0,17,0,0,0,0,0,0,0
M  ZZE   7 10,10,0,0,0,0,0,0;0,17,0,17,0,0,0,0,0,0,0
M  ZZE   8 10,10,0,0,0,0,0,0;0,17,0,17,0,0,0,0,0,0,0
M  ZZE   9 10,10,0,0,0,0,0,0;0,4,0,4,0,0,0,0,0,0,0
M  ZZE  10 10,10,0,0,0,0,0,0;0,3,0,3,0,0,0,0,0,0,0
M  ZZE  11 10,10,0,0,0,0,0,0;0,17,0,17,0,0,0,0,0,0,0
M  ZZE  12 10,10,0,0,0,0,0,0;0,17,0,17,0,0,0,0,0,0,0
M  ZZE  13 10,10,0,0,0,0,0,0;0,4,0,4,0,0,0,0,0,0,0
M  ZZE  14 10,10,0,0,0,0,0,0;0,4,0,4,0,0,0,0,0,0,0
M  END
> <L>
0

> <N>
0

> <idnumber>
CAS: 39221-42-6

> <s_m_entry_id>
0

> <CO>
0

> <ord>
0

> <r_pdb_PDB_CRYST1_alpha>
0

> <cl>
0

> <chiral_flag>
0

> <r_pdb_PDB_CRYST1_beta>
0

> <version>
0

> <r_pdb_PDB_CRYST1_gamma>
0

> <i_pdb_PDB_CRYST1_z>
0

> <i_lp_mmshare_version>
0

> <i_m_Source_File_Index>
0

> <s_ppw_entry_id_backup>
0

> <b_ppw_prepared>
0

> <i_epik_Tot_Q>
0

> <b_ppw_assigned_bond_orders>
0

> <i_epik_Tot_abs_Q>
0

> <b_ppw_added_hydrogens>
0

> <b_ppw_treated_metals>
0

> <b_ppw_created_disulfur>
0

> <b_lp_Chiralities_Consistent>
0

> <b_ppw_deleted_far_waters>
0

> <r_lp_tautomer_probability>
0

> <b_ppw_ran_protassign>
0

> <i_f3d_flags>
0

> <i_i_glide_lignum>
0

> <i_i_glide_rotatable_bonds>
0

> <r_i_target_temperature>
0

> <b_ppw_ran_impref>
0

> <r_i_glide_metal>
0

> <i_glide_grid_version>
0

> <r_glide_gridbox_xrange>
0

> <r_glide_gridbox_yrange>
0

> <r_glide_gridbox_zrange>
0

> <r_glide_gridbox_ligxrange>
0

> <r_glide_gridbox_ligyrange>
0

> <i_i_glide_confnum>
0

> <i_i_glide_posenum>
0

> <r_glide_gridbox_ligzrange>
0

> <b_glide_receptor>
0

> <b_glide_conssat_A_ARG_221_H_hbond_>
0

> <b_glide_conssat_A_ARG_221_HE_hbond_>
0

> <b_glide_conssat_A_TYR_261_HH_hbond_>
0

> <b_m_subgroup_collapsed>
0

> <O>
85

> <CO_1>
0

> <ord_1>
0

> <cl_1>
0

> <ord_2>
0

> <cl_2>
0

> <CO_2>
0

> <cl_3>
0

$$$$
C10H9N2O3S
  MOLSOFT 07311911062D

 16 17  0  0  0  0  0  0  0  0999 V2000
    0.0000    0.0000    0.0000 C   0  0  0
    0.7000    1.2124    0.0000 N   0  0  0
    2.1000    1.2124    0.0000 C   0  0  0
    2.8000   -0.0000    0.0000 C   0  0  0
    2.1000   -1.2124    0.0000 C   0  0  0
    0.7000   -1.2124    0.0000 N   0  0  0
   -0.0000   -2.4249    0.0000 C   0  0  0
    0.7000   -3.6373    0.0000 C   0  0  0
    2.1000   -3.6373    0.0000 O   0  5  0
   -0.0000   -4.8497    0.0000 O   0  0  0
    2.8000   -2.4249    0.0000 O   0  0  0
    4.1694    0.2911    0.0000 C   0  0  0
    4.3157    1.6834    0.0000 C   0  0  0
    5.5282    2.3834    0.0000 C   0  0  0
    3.0368    2.2528    0.0000 S   0  0  0
    5.2098   -0.6457    0.0000 C   0  0  0
  1  2  2
  2  3  1
  3  4  2
  6  1  1
  6  7  1
  7  8  1
  8  9  1
  8 10  2
  5  6  1
  5 11  2
  4  5  1
  4 12  1
 13 14  1
 15  3  1
 13 15  1
 12 13  2
 12 16  1
M  ZZE   1 10,10,0,0,0,0,0,0;0,17,0,17,0,0,0,0,0,0,0
M  ZZE   2 10,10,0,0,0,0,0,0;0,3,0,3,0,0,0,0,0,0,0
M  ZZE   3 10,10,0,0,0,0,0,0;0,17,0,17,0,0,0,0,0,0,0
M  ZZE   4 10,10,0,0,0,0,0,0;0,17,0,17,0,0,0,0,0,0,0
M  ZZE   5 10,10,0,0,0,0,0,0;0,17,0,17,0,0,0,0,0,0,0
M  ZZE   6 10,10,0,0,0,0,0,0;0,3,0,3,0,0,0,0,0,0,0
M  ZZE   7 10,10,0,0,0,0,0,0;0,17,0,17,0,0,0,0,0,0,0
M  ZZE   8 10,10,0,0,0,0,0,0;0,17,0,17,0,0,0,0,0,0,0
M  ZZE   9 10,10,0,0,0,0,0,0;0,4,0,4,0,0,0,0,0,0,0
M  ZZE  10 10,10,0,0,0,0,0,0;0,4,0,4,0,0,0,0,0,0,0
M  ZZE  11 10,10,0,0,0,0,0,0;0,4,0,4,0,0,0,0,0,0,0
M  ZZE  12 10,10,0,0,0,0,0,0;0,17,0,17,0,0,0,0,0,0,0
M  ZZE  13 10,10,0,0,0,0,0,0;0,17,0,17,0,0,0,0,0,0,0
M  ZZE  14 10,10,0,0,0,0,0,0;0,17,0,17,0,0,0,0,0,0,0
M  ZZE  15 10,10,0,0,0,0,0,0;0,5,0,5,0,0,0,0,0,0,0
M  ZZE  16 10,10,0,0,0,0,0,0;0,17,0,17,0,0,0,0,0,0,0
M  CHG  1   9  -1
M  END
> <L>
0

> <N>
0

> <idnumber>
ZINC279657

> <s_m_entry_id>
0

> <CO>
0

> <ord>
0

> <r_pdb_PDB_CRYST1_alpha>
0

> <cl>
0

> <chiral_flag>
0

> <r_pdb_PDB_CRYST1_beta>
0

> <version>
0

> <r_pdb_PDB_CRYST1_gamma>
0

> <i_pdb_PDB_CRYST1_z>
0

> <i_lp_mmshare_version>
0

> <i_m_Source_File_Index>
0

> <s_ppw_entry_id_backup>
0

> <b_ppw_prepared>
0

> <i_epik_Tot_Q>
0

> <b_ppw_assigned_bond_orders>
0

> <i_epik_Tot_abs_Q>
0

> <b_ppw_added_hydrogens>
0

> <b_ppw_treated_metals>
0

> <b_ppw_created_disulfur>
0

> <b_lp_Chiralities_Consistent>
0

> <b_ppw_deleted_far_waters>
0

> <r_lp_tautomer_probability>
0

> <b_ppw_ran_protassign>
0

> <i_f3d_flags>
0

> <i_i_glide_lignum>
0

> <i_i_glide_rotatable_bonds>
0

> <r_i_target_temperature>
0

> <b_ppw_ran_impref>
0

> <r_i_glide_metal>
0

> <i_glide_grid_version>
0

> <r_glide_gridbox_xrange>
0

> <r_glide_gridbox_yrange>
0

> <r_glide_gridbox_zrange>
0

> <r_glide_gridbox_ligxrange>
0

> <r_glide_gridbox_ligyrange>
0

> <i_i_glide_confnum>
0

> <i_i_glide_posenum>
0

> <r_glide_gridbox_ligzrange>
0

> <b_glide_receptor>
0

> <b_glide_conssat_A_ARG_221_H_hbond_>
0

> <b_glide_conssat_A_ARG_221_HE_hbond_>
0

> <b_glide_conssat_A_TYR_261_HH_hbond_>
0

> <b_m_subgroup_collapsed>
0

> <O>
86

> <CO_1>
0

> <ord_1>
0

> <cl_1>
0

> <ord_2>
0

> <cl_2>
0

> <CO_2>
0

> <cl_3>
0

$$$$

  MOLSOFT 07311911060D

  0  0  0  0  0  0  0  0  0  0999 V2000
M  END
> <L>
0

> <N>
0

> <s_m_entry_id>
0

> <CO>
0

> <ord>
0

> <r_pdb_PDB_CRYST1_alpha>
0

> <cl>
0

> <chiral_flag>
0

> <r_pdb_PDB_CRYST1_beta>
0

> <version>
0

> <r_pdb_PDB_CRYST1_gamma>
0

> <i_pdb_PDB_CRYST1_z>
0

> <i_lp_mmshare_version>
0

> <i_m_Source_File_Index>
0

> <s_ppw_entry_id_backup>
0

> <b_ppw_prepared>
0

> <i_epik_Tot_Q>
0

> <b_ppw_assigned_bond_orders>
0

> <i_epik_Tot_abs_Q>
0

> <b_ppw_added_hydrogens>
0

> <b_ppw_treated_metals>
0

> <b_ppw_created_disulfur>
0

> <b_lp_Chiralities_Consistent>
0

> <b_ppw_deleted_far_waters>
0

> <r_lp_tautomer_probability>
0

> <b_ppw_ran_protassign>
0

> <i_f3d_flags>
0

> <i_i_glide_lignum>
0

> <i_i_glide_rotatable_bonds>
0

> <r_i_target_temperature>
0

> <b_ppw_ran_impref>
0

> <r_i_glide_metal>
0

> <i_glide_grid_version>
0

> <r_glide_gridbox_xrange>
0

> <r_glide_gridbox_yrange>
0

> <r_glide_gridbox_zrange>
0

> <r_glide_gridbox_ligxrange>
0

> <r_glide_gridbox_ligyrange>
0

> <i_i_glide_confnum>
0

> <i_i_glide_posenum>
0

> <r_glide_gridbox_ligzrange>
0

> <b_glide_receptor>
0

> <b_glide_conssat_A_ARG_221_H_hbond_>
0

> <b_glide_conssat_A_ARG_221_HE_hbond_>
0

> <b_glide_conssat_A_TYR_261_HH_hbond_>
0

> <b_m_subgroup_collapsed>
0

> <O>
87

> <CO_1>
0

> <ord_1>
0

> <cl_1>
0

> <ord_2>
0

> <cl_2>
0

> <CO_2>
0

> <cl_3>
0

$$$$
